389
-1
 O   26.947  26.291   7.775
 H   25.288  26.786   6.709
 H   27.572  24.275   5.431
 C   26.029  26.025   6.996
 N   26.992  23.877   6.169
 H   27.333  23.105   6.724
 H   24.209  24.429   8.055
 C   25.087  23.849   7.776
 H   25.770  23.848   8.627
 C   25.757  24.566   6.593
 H   25.064  24.539   5.753
 C   24.646  22.409   7.505
 H   25.512  21.755   7.400
 H   24.076  22.405   6.576
 H   24.344  21.658   9.506
 H   19.594  22.129  13.491
 H   18.974  23.205  15.565
 C   19.843  24.144  13.080
 C   18.969  23.017  13.388
 C   17.549  24.626  14.801
 C   18.236  23.243  14.762
 H   19.266  25.005  12.749
 N   17.220  22.219  14.948
 H   18.162  25.488  15.103
 H   16.393  22.275  14.372
 H   20.455  24.405  13.945
 H   17.321  21.440  15.599
 O   16.328  24.735  14.569
 O   22.233  15.970   0.265
 N   22.952  20.730   8.230
 C   23.728  21.896   8.637
 H   22.868  20.550   7.237
 C   22.367  19.871   9.064
 H   23.024  22.684   8.912
 N   21.776  18.789   8.589
 H   21.318  18.143   9.210
 H   22.804  20.907  10.744
 N   22.376  20.074  10.370
 H   20.515  23.868  12.266
 H   21.929  19.414  10.986
 H   15.140  13.678   6.190
 H   15.051  14.395   8.967
 N   15.542  14.239   6.941
 H   23.136  18.418   3.151
 O   22.642  19.502   0.361
 O   22.714  20.482   5.029
 C   22.272  19.337   4.844
 H   21.752  18.633   7.589
 O   21.836  18.647   5.778
 H   16.530  14.445   6.949
 C   22.169  18.827   3.447
 H   21.265  18.329  -1.174
 H   21.428  18.026   3.407
 C   20.084  16.745  -0.413
 C   21.023  16.088   0.586
 O   20.531  15.682   1.672
 H   20.187  16.240  -1.375
 H   19.162  18.493  -2.424
 H   22.568  20.666   2.504
H 19.42326000 19.22718000 10.07351000
H 20.05789000 21.15349000 8.62658000
 C   18.009  22.769  12.263
C 18.67300000 19.93900000 9.75800000
 H   17.477  21.831  12.407
 H   18.554  22.696  11.321
 H   17.293  23.586  12.189
H 17.07720000 18.93651000 10.80748000
 O   15.803  16.952   7.888
 C   14.762  16.314   8.114
 C   14.714  14.799   8.014
 H   13.681  14.502   7.886
 N   20.524  18.868   0.719
 N   20.536  20.559   2.918
 C   21.693  19.374   1.107
 C   20.355  18.227  -0.584
 C   21.779  19.912   2.496
 H   19.994  20.138   3.658
H 19.29727000 17.48968000 4.90435000
H 17.75296000 16.84471000 5.54325000
 H   19.752  18.836   1.369
 H   19.057  16.606  -0.069
 H   14.974  16.195  -3.862
 C   13.297  15.592  -2.184
 H   14.113  14.918  -1.938
 H   12.836  15.292  -3.126
 H   12.545  15.509  -1.399
 C   19.212  18.807  -1.371
 H   13.269  17.060  -5.239
H 18.14850000 18.68940000 7.01455000
O 19.06100000 19.93800000 5.72900000
C 17.34700000 19.77300000 10.17600000
C 19.03700000 21.01600000 8.94700000
C 16.37400000 20.68700000 9.77200000
 H   14.458  18.783   8.615
 C   13.484  18.319   8.459
 N   13.583  16.896   8.239
 H   12.751  16.331   8.344
 O   12.880  17.976  10.721
 C   20.089  21.661   2.292
 O   18.660  23.054   5.417
 O   20.749  22.243   1.403
H 18.78668000 20.54928000 5.04499000
C 18.06700000 18.94500000 5.93600000
 H   18.346  21.577   3.542
H 15.94051000 18.90926000 6.17300000
C 18.22600000 17.72600000 5.05700000
 C   13.618  17.726  -4.436
 C   14.628  17.162  -3.514
 H   16.715  17.829  -3.624
C 17.50000000 17.36300000 2.49600000
C 17.47600000 17.90400000 3.76000000
H 16.65542000 17.46665000 0.55597000
C 16.50400000 19.06100000 4.12800000
C 16.61300000 17.87200000 1.54100000
 H   15.454  16.904  -0.903
 O   18.383  19.523  -0.846
H 18.16353000 16.58647000 2.25987000
 N   15.750  18.102  -3.440
 H   15.539  19.071  -3.240
 O   13.169  18.861  -4.263
 O   15.779  21.111  -4.072
H 15.35063000 20.54423000 10.09839000
 C   12.647  18.565   9.672
 H    9.255  18.544  11.293
 H   18.011  22.715   0.728
 H   17.764  26.315  -2.025
 N   17.407  27.054  -1.437
 H   16.947  27.858  -1.864
 C   18.721  22.211   2.738
 N   18.819  23.600   3.217
 H   18.883  24.336   2.527
 O   19.003  25.309   0.692
 H   20.034  26.347   3.290
 H   19.803  25.522   5.545
 H   17.731  28.217   7.549
 H   19.646  30.419   6.619
 H   18.139  30.957   7.349
 N   18.626  30.444   6.627
 C   18.957  25.372   4.876
C 18.05800000 21.91600000 8.55300000
H 18.33896000 22.75246000 7.93200000
 H   11.275  19.888  11.599
 H   12.104  21.982  12.410
C 16.73300000 21.75000000 8.96100000
 H    3.551  24.710  12.607
 H    5.414  25.799  13.056
 H    4.361  27.849  12.086
 H   12.921  28.863  16.366
 C   10.656  26.825  14.592
 H   12.415  27.109  13.419
 H   10.416  25.884  14.095
 H    9.731  27.349  14.834
 H   11.043  29.331  14.995
 C   13.036  28.655  15.292
 C   11.893  28.983  14.419
 H   11.186  26.596  15.518
 N   12.390  30.005  13.537
 H   11.867  30.865  13.369
 H   13.243  29.825  13.023
 O   14.067  28.221  14.821
 C   11.528  27.683  13.690
 C   18.555  26.446   0.653
 N   19.106  26.199   3.688
 H   19.060  27.284   1.155
 H   18.276  26.591   3.261
 H   18.491  28.853   5.252
 C   17.227  26.751  -0.026
 H   16.771  27.593   0.495
 C   17.853  29.516   5.837
 H    7.874  25.638  13.094
 H   11.174  23.494  12.213
 C   11.936  22.850  11.773
 H   12.861  23.421  11.714
 H    9.595  21.643  12.295
 H   12.436  22.017   9.895
 C   18.845  23.903   4.520
H 14.65468000 22.32653000 8.91454000
 H   18.047  25.663   5.395
H 15.84111000 23.66689000 8.96959000
H 17.40714000 21.44004000 6.14728000
C 16.69200000 19.50000000 5.60400000
N 16.58300000 20.91300000 5.92400000
C 15.64400000 22.66400000 8.53400000
O 14.36700000 20.83100000 6.39700000
 C   10.858  19.974  10.594
 N   11.850  19.611   9.584
 C    9.707  18.988  10.393
 H   13.021  18.777   7.585
 O    9.341  18.670   9.251
 C   17.682  22.117   1.578
 H   17.577  21.078   1.267
C 15.68300000 19.47900000 3.12900000
 H   16.759  24.675  -0.271
 C   16.258  25.572   0.084
 H   15.394  25.761  -0.555
 H   15.923  23.158  -4.116
 H   14.726  18.525  -1.052
C 15.72200000 18.90600000 1.86500000
 C   14.518  17.455  -1.007
 H   13.900  17.270  -0.127
 H   12.881  17.623  -2.251
 C   13.781  17.005  -2.245
 H   16.197  21.730  -1.499
 H   15.450  23.333  -1.257
 H   13.091  20.760  -4.199
 H   13.765  23.515  -3.149
 C   15.345  22.255  -3.870
 N   12.983  21.755  -4.066
 H   12.169  22.229  -4.457
C 15.44700000 21.44000000 6.37300000
 O   16.399  25.780   2.453
C 15.57300000 22.82100000 7.00500000
H 16.51244000 23.31680000 6.68885000
 O   15.762  26.696   6.882
 H   11.824  20.122   8.714
 C   10.365  21.453  10.316
 C    9.299  21.862  11.270
 H   16.715  22.482   1.924
H 14.98365000 20.28203000 3.32383000
 O   14.731  24.675   1.645
O 15.24200000 24.88400000 4.63400000
 H   15.243  22.052  -0.056
 H   14.090  20.748  -1.954
 C   15.323  22.264  -1.122
H 15.05361000 19.28785000 1.10751000
 C   14.041  21.833  -1.837
 C   13.979  22.449  -3.233
 H    6.120  24.567  12.015
 C    5.959  25.628  12.127
 H    4.279  28.059  10.323
 N    3.167  25.258  11.849
 H    2.190  25.551  11.868
 C    3.978  25.464  10.655
 H    3.421  25.976   9.869
 H    9.079  22.926  11.163
 H    8.384  21.311  11.051
 O    4.667  23.248  10.887
 C    4.420  24.140  10.114
 C   11.556  22.421  10.394
 H   10.040  21.568   9.314
 H    8.896  20.995   8.028
 C   15.759  25.336   1.493
 H   15.968  25.555   3.323
 C   16.316  27.513   6.146
 O   16.236  27.458   4.905
 C   17.047  28.642   6.811
 C   16.945  30.292   4.886
 H   17.295  30.415   3.850
 O   15.843  30.678   5.237
 H   16.327  29.271   7.332
 N    4.567  24.042   8.795
 H    4.783  21.951   8.838
H 15.12713000 25.69563000 5.10943000
C 14.44000000 23.76100000 6.56900000
H 14.50554000 24.70783000 7.13345000
 H   11.287  23.326   9.846
H 13.50015000 23.28533000 6.92115000
 H    7.343  27.224  12.544
 H    9.957  28.621  12.607
 H    7.934  26.030  11.369
 C    7.369  26.170  12.291
 H    5.882  26.203  10.075
 C    5.234  26.259  10.953
 C    4.898  27.703  11.148
 H    5.811  28.296  11.150
H 9.49630000 25.40127000 10.35791000
 H   10.447  27.032  11.982
H 11.96485000 25.39501000 8.98618000
C 11.39800000 26.34700000 9.07400000
 C   10.805  27.963  12.423
H 11.40265000 26.62976000 10.13534000
 H   11.473  28.430  11.697
H 9.27721000 27.87870000 9.70818000
H 12.00633000 27.10402000 8.55230000
 H   15.930  28.687   3.278
 H   14.329  27.286   2.302
 C   14.043  28.331   2.349
 N   15.213  29.111   2.702
 H   13.656  28.627   1.374
 H   15.281  30.079   2.387
C 9.36400000 25.28300000 9.26800000
H 8.28409000 25.30408000 8.99741000
H 9.65042000 24.24758000 9.04488000
H 12.95122000 25.80315000 5.27461000
O 10.93700000 23.84900000 7.05700000
C 10.14500000 26.25000000 8.49000000
 H    6.625  20.955   8.460
 N    7.015  21.688   7.884
C 14.20300000 24.06400000 5.07800000
H 14.22041000 23.12786000 4.48123000
H 13.34794000 25.48955000 3.60347000
 C    8.313  21.471   7.276
 C    8.221  20.379   6.232
 H    9.121  19.750   6.168
 O    7.177  20.197   5.583
 H   13.204  21.300   0.831
 C   12.438  21.217   0.060
 H   12.800  23.175  -0.714
 C   12.754  22.151  -1.088
 H   12.400  20.188  -0.298
 H   11.915  22.093  -1.771
C 13.08300000 24.96300000 4.55200000
 H    8.795  22.372   6.895
C 11.75300000 23.77600000 2.96100000
H 11.85183000 24.66604000 2.29670000
H 12.59789000 23.09473000 2.71913000
N 11.81900000 24.28200000 4.35500000
 H   11.473  21.482   0.493
 H    5.514  19.234   2.139
 C    7.387  19.243   1.190
 C    6.244  20.969  -1.727
 C    5.896  20.066  -0.556
 N    6.922  19.074  -0.214
 H    7.155  18.340  -0.883
 H    4.968  19.536  -0.779
 H    7.548  18.294   1.700
 H    7.291  21.286  -1.843
 O    5.343  21.294  -2.509
 C    4.886  22.777   8.145
 H    4.393  24.846   8.210
 H    4.160  22.609   7.350
H 9.62074000 22.98158000 4.93572000
 C    6.265  22.720   7.521
H 10.45775000 22.12100000 2.83501000
 O    6.723  23.689   6.900
 H    8.288  19.858   1.209
 C    6.274  19.954   1.831
 H    6.611  20.529   2.694
 H    4.640  21.096   0.901
C 10.59100000 24.86400000 6.46600000
 C   12.958  28.456   3.394
 H   13.242  28.880   4.368
H 4.02792000 23.38541000 4.92870000
C 10.59100000 24.90500000 4.96200000
H 10.41245000 25.91552000 4.53108000
N 10.19300000 25.95300000 7.09400000
C 9.37900000 27.57700000 8.64100000
H 9.86942000 26.71477000 6.47419000
H 8.35674000 27.51537000 8.20446000
H 9.91848000 28.39275000 8.11615000
 O   11.832  28.015   3.171
H 8.54933000 24.39250000 4.87237000
C 9.49800000 23.98300000 4.45900000
C 8.03300000 23.10000000 2.60400000
H 6.25170000 22.38490000 4.50121000
C 5.90500000 23.21100000 3.89700000
C 10.44000000 23.18200000 2.49300000
H 8.05043000 22.11321000 3.11762000
H 8.06536000 22.82839000 1.55453000
 H    6.276  21.797   0.693
H 10.41502000 23.16193000 1.38388000
N 9.28000000 23.76300000 3.00400000
 C    5.694  20.874   0.729
C 4.65400000 23.77400000 4.13600000
C 4.20700000 24.83900000 3.34800000
H 3.22728000 25.23709000 3.57673000
 O   8.84000   28.02600   4.86000
C 6.66600000 23.73900000 2.87600000
C 6.15800000 24.80800000 2.12400000
 H   9.38649   28.21129   4.06796
N 4.91100000 25.43000000 2.30000000
 H   8.00418   28.48378   4.63665
H 6.78836000 25.18577000 1.32889000
 H    5.427  27.825   1.859
 H    6.023  29.345   2.484
 N    5.925  28.688   1.719
 H    6.052  27.129  -0.241
 N    6.476  28.028  -0.411
 C    6.523  28.938   0.561
 H    7.198  30.739   1.162
 H    6.892  28.231  -1.306
 N    7.143  30.102   0.378
 H    8.503  29.664  -1.135
 C    7.828  30.471  -0.844
 H    7.098  30.630  -1.639
 H    7.949  32.541  -0.408
 C    8.623  31.716  -0.644
 H    9.302  31.567   0.198
 C    9.435  32.061  -1.862
 H   10.035  31.189  -2.128
 H    8.765  32.278  -2.696
 C   10.385  33.251  -1.642
 H   10.927  33.090  -0.711
 H    8.659  34.531  -1.650
 H   10.170  35.409  -1.454
 C   11.348  33.305  -2.780
 N    9.661  34.528  -1.525
 H   12.322  32.817  -2.630
 O   10.964  33.682  -3.906
