64
-2
 N   18.626  30.444   6.627
 C   17.853  29.516   5.837
 C   16.945  30.292   4.886
 O   15.843  30.678   5.237
 C   17.047  28.642   6.811
 C   16.316  27.513   6.146
 O   16.236  27.458   4.905
 O   15.762  26.696   6.882
 N    4.567  24.042   8.795
 C    4.886  22.777   8.145
 C    6.265  22.720   7.521
 O    6.723  23.689   6.900
 N   17.407  27.054  -1.437
 C   17.227  26.751  -0.026
 C   18.555  26.446   0.653
 O   19.003  25.309   0.692
 C   16.258  25.572   0.084
 C   15.759  25.336   1.493
 O   16.399  25.780   2.453
 O   14.731  24.675   1.645
 N   19.106  26.199   3.688
 C   18.957  25.372   4.876
 C   18.845  23.903   4.520
 O   18.660  23.054   5.417
 N   20.536  20.559   2.918
 C   21.779  19.912   2.496
 C   21.693  19.374   1.107
 O   22.642  19.502   0.361
 C   22.169  18.827   3.447
 C   22.272  19.337   4.844
 O   22.714  20.482   5.029
 O   21.836  18.647   5.778
 H   18.139  30.957   7.349
 H   18.491  28.853   5.252
 H   17.731  28.217   7.549
 H   16.327  29.271   7.332
 H    4.393  24.846   8.210
 H    4.783  21.951   8.838
 H    4.160  22.609   7.350
 H   17.764  26.315  -2.025
 H   16.771  27.593   0.495
 H   15.394  25.761  -0.555
 H   16.759  24.675  -0.271
 H   18.276  26.591   3.261
 H   19.803  25.522   5.545
 H   18.047  25.663   5.395
 H   19.994  20.138   3.658
 H   22.568  20.666   2.504
 H   21.428  18.026   3.407
 H   23.136  18.418   3.151
 H   15.968  25.555   3.323
 H   19.646  30.419   6.619
 H   17.295  30.415   3.850
 H    4.454  24.117   9.806
 H    6.887  21.864   7.822
 H   16.947  27.858  -1.864
 H   19.060  27.284   1.155
 H   20.034  26.347   3.290
 H   18.824  23.654   3.449
 H   20.197  21.395   2.443
 H   20.727  18.956   0.786
 O   8.84000   28.02600   4.86000
 H   8.00418   28.48378   4.63665
 H   9.38649   28.21129   4.06796
