576

H         27.47411       24.42281        5.45637
N         26.99200       23.87700        6.16900
O         26.94700       26.29100        7.77500
C         26.02900       26.02500        6.99600
H         25.32621       26.78486        6.61863
C         25.75700       24.56600        6.59300
H         25.07339       24.59930        5.73671
H         26.76243       22.97835        5.74677
C         25.08700       23.84900        7.77600
H         25.75901       23.85474        8.64508
H         24.09876       22.38228        6.55502
H         25.50862       21.74186        7.39793
C         24.64600       22.40900        7.50500
H         24.21530       24.44140        8.07548
O         10.96400       33.68200       -3.90600
H         12.37271       32.94016       -2.60749
C         11.34800       33.30500       -2.78000
H         10.31506       35.30841       -1.49525
N          9.66100       34.52800       -1.52500
O         22.23300       15.97000        0.26500
O         22.64200       19.50200        0.36100
H         21.26176       18.36938       -1.18226
H         20.17478       16.21177       -1.36753
H         19.15591       18.52461       -2.43598
H         20.98073       30.03287        8.84889
C         21.69300       19.37400        1.10700
H         22.54385       20.70108        2.49010
C         21.02300       16.08800        0.58600
O         20.53100       15.68200        1.67200
H         23.13078       18.37721        3.17500
H         24.34940       21.66364        9.50998
H         16.11952       18.28198       -4.37628
H         13.25869       17.07787       -5.25187
O         13.16900       18.86100       -4.26300
O         15.00800       25.91500       -3.58800
H         15.11481       27.92817       -3.90481
N         12.56000       26.25700       -5.05400
H         13.03988       26.44605       -5.93230
H         11.56442       26.38134       -5.22872
O         15.77900       21.11100       -4.07200
H         16.53352       26.91225       -1.95009
H         19.13272       27.31859        1.00039
N         17.40700       27.05400       -1.43700
H         18.02812       26.34536       -1.84561
H         12.79397       28.18741       -4.26975
C         14.51800       27.00500       -3.82200
H         13.66390       27.53778       -1.25356
H         12.51943       29.47384       -2.32223
C         13.01700       27.15100       -4.00100
C         12.00600       28.87700       -1.56200
C         10.38500       33.25100       -1.64200
H         10.97656       33.10352       -0.73095
H          9.12797       34.55177       -0.65785
H          8.76772       32.26735       -2.71009
H         22.11258       28.46740       10.22834
H         17.38627       30.56950        3.91419
H         19.35963       30.90169        6.09120
C         17.22700       26.75100       -0.02600
H         16.80070       27.62517        0.47553
O         22.71400       20.48200        5.02900
O         19.00300       25.30900        0.69200
C         18.55500       26.44600        0.65300
O         20.74900       22.24300        1.40300
C         22.16900       18.82700        3.44700
C         21.77900       19.91200        2.49600
C         20.08900       21.66100        2.29200
H         19.18342       24.29093        2.55518
H         19.15327       27.17492        3.95955
N         19.10600       26.19900        3.68800
H         18.22573       26.10174        3.16528
H         20.34938       27.34381        8.02855
C         21.93900       26.03900        8.62100
H         22.05913       25.58726        7.62992
H         22.17239       25.26883        9.36457
H         22.68780       26.83248        8.70637
H         21.21448       29.66158       12.14912
H         21.44699       28.07110       12.45213
C         21.04700       28.47300       10.47600
N         20.89300       28.72600       11.90300
N         20.53600       20.55900        2.91800
H         21.42226       18.02299        3.42143
C         22.27200       19.33700        4.84400
H         21.49844       17.75692        5.55463
O         21.83600       18.64700        5.77800
H         20.73981       26.38819       10.89884
H         20.51618       24.37784       13.91266
C         19.84300       24.14400       13.08000
H         18.95833       23.21731       15.58562
C         20.38100       29.59600        9.66400
O         19.23100       29.94300        9.91200
H         19.02323       30.04067        7.46939
N         18.62600       30.44400        6.62700
H         15.85800       29.10349        1.91683
H         12.11327       29.40232       -0.60685
H          9.91866       32.47802        4.89149
H         16.74726       24.65332       -0.24942
H         15.36972       25.75312       -0.53366
C         15.34500       22.25500       -3.87000
H         15.91379       23.16252       -4.12918
C         17.85300       29.51600        5.83700
H         18.51402       28.88635        5.23426
C         16.94500       30.29200        4.88600
O         15.17800       30.60000       12.38400
H         23.02131       22.68034        8.93137
H         21.87107       18.83538        7.56516
H         20.48259       23.92291       12.21663
C         23.72800       21.89600        8.63700
H         22.89242       20.55804        7.22719
N         22.95200       20.73000        8.23000
C         22.36700       19.87100        9.06400
H         22.11037       21.00731       10.64665
N         21.77600       18.78900        8.58900
N         22.37600       20.07400       10.37000
N         18.81900       23.60000        3.21700
C         18.95700       25.37200        4.87600
C         20.53200       26.57300        8.78600
H         19.84394       25.49843        5.50204
H         10.93928       28.85313       -1.80913
H         10.03142       31.18900       -2.16109
C          9.43500       32.06100       -1.86200
C         12.59200       27.47200       -1.46900
C         12.33000       26.72100       -2.74100
C          8.62300       31.71600       -0.64400
H          9.29599       31.58959        0.21443
H          7.95220       32.54453       -0.38504
O          8.59100       31.19200        3.10400
H          8.51205       29.66537       -1.13800
H          7.09757       30.60809       -1.64989
H         19.30834       27.24481       10.38882
C         20.38200       27.13500       10.17400
C         16.19000       30.13200       11.81100
H         18.18739       25.50079       15.00581
H         16.82207       30.75416       11.15611
N         20.52400       18.86800        0.71900
H         19.57643       15.51083        1.63519
C         19.21200       18.80700       -1.37100
C         20.35500       18.22700       -0.58400
C         20.08400       16.74500       -0.41300
H         17.98150       22.74958        0.73714
H         19.05077       16.57392       -0.08770
H         19.68702       19.21848        1.17837
H         13.75511       23.51891       -3.19980
H         15.45340       23.34071       -1.22071
H         13.30811       20.78635       -4.22660
N         12.98300       21.75500       -4.06600
H         17.61307       21.08968        1.21359
H         18.16309       16.55782        2.26142
H         16.21354       21.76370       -1.51423
O         18.38300       19.52300       -0.84600
H         14.78714       18.51316       -1.04994
H         16.66616       17.49739        0.52845
H         15.39175       19.03555       -3.18486
H         15.41793       16.84616       -0.89672
C         13.78100       17.00500       -2.24500
N         15.75000       18.10200       -3.44000
C         13.61800       17.72600       -4.43600
C         13.29700       15.59200       -2.18400
C         14.62800       17.16200       -3.51400
H         14.12697       14.88167       -2.09501
H         12.64912       15.43942       -1.31323
H         14.99177       16.20937       -3.91203
H         12.71400       15.32029       -3.07091
H         15.44640       14.20547        0.94005
H         17.38898       14.28107        1.99975
C         17.22900       13.53400        2.78200
H         18.15541       13.48756        3.36501
H         17.08579       12.56287        2.29767
H         14.54734       12.72367        2.62756
H         15.90683       11.35693        3.68405
N         15.58200       11.63600        4.60400
H         14.55687       11.60516        4.58497
H         17.72329       28.19616        7.55136
C         17.04700       28.64200        6.81100
H         16.30400       29.25623        7.32997
O         15.84300       30.67800        5.23700
C         17.68200       22.11700        1.57800
O         12.30300       31.61800        5.50400
C         18.72100       22.21100        2.73800
H         20.24314       20.45930        3.88661
C         17.50000       17.36300        2.49600
C         17.47600       17.90400        3.76000
H         19.28035       17.53665        4.83417
H         21.80332       19.37804       10.83481
C         18.22600       17.72600        5.05700
H         17.81194       16.84032        5.55428
C         16.04000       13.91500        3.69900
H         17.00056       12.93418        5.40614
C         16.00300       12.98600        4.95500
C         15.32300       22.26400       -1.12200
H         14.10187       20.73976       -1.93712
C         14.04100       21.83300       -1.83700
C         13.97900       22.44900       -3.23300
C         14.51800       17.45500       -1.00700
H         12.87675       17.63077       -2.26086
C         14.74200       14.56100        1.69800
H         13.75252       14.52868        1.22643
C         16.25800       25.57200        0.08400
H         14.09007       29.62024        4.52949
H         13.64155       28.71462        1.40666
N         15.21300       29.11100        2.70200
H         12.57747       25.66180       -2.56397
H         12.10805       21.60320       -3.56548
H         11.24334       26.72156       -2.92413
H          9.50713       21.96765       -4.60237
O          9.97300       20.91100       -2.92900
H          9.04477       24.09786       -3.20887
C          9.25500       21.63600       -3.58100
H          7.23476       22.24341       -3.77501
H          6.61496       24.60201       -3.32710
H         16.69672       22.44214        1.92454
H         15.26753       22.02176       -0.05712
H         15.67422       28.57822        3.45064
O         16.23600       27.45800        4.90500
O         16.39900       25.78000        2.45300
C         15.75900       25.33600        1.49300
C         14.04300       28.33100        2.34900
H         14.28386       27.27919        2.22865
O         14.73100       24.67500        1.64500
C         11.91700       26.65800       -0.37900
H         12.01547       27.15297        0.59012
N         13.30100       28.96700        4.56900
H         12.36729       25.66424       -0.28074
H         11.89121       22.12860       -1.74964
H         10.84477       26.53075       -0.56580
C          7.82800       30.47100       -0.84400
C          7.75200       31.00400        4.01500
H          7.42520       30.59337        1.22266
N          7.14300       30.10200        0.37800
O          6.66100       30.41000        3.83300
H          6.03305       30.40929        4.58581
C         19.49000       25.49000        8.62700
H         19.62514       24.95064        7.68644
H         20.05589       21.12796        8.59499
H         19.54690       24.74937        9.43325
C         16.31600       27.51300        6.14600
H         15.93544       25.39914        3.25210
H         18.07070       25.65325        5.44341
H         18.66530       20.70217        5.28130
C         18.84500       23.90300        4.52000
H         18.33604       21.58622        3.54405
O         19.06100       19.93800        5.72900
O         18.66000       23.05400        5.41700
H         15.27544       25.65303        5.24173
O         15.76200       26.69600        6.88200
O         15.24200       24.88400        4.63400
H         18.47767       25.90738        8.62479
H         17.55705       28.52906       11.46203
H         19.29584       25.06016       12.82980
H         16.43222       26.21784       10.02378
H         16.88796       26.14039       11.70755
C         16.58800       28.65100       11.95500
H         16.65086       27.27271       13.48924
C         17.54900       24.62600       14.80100
N         16.72900       28.28300       13.37000
O         16.32800       24.73500       14.56900
C         18.96900       23.01700       13.38800
H         19.58188       22.11220       13.50005
C         18.23600       23.24300       14.76200
O         18.30600       21.08500       16.56700
C         18.06700       18.94500        5.93600
H         18.13763       18.66807        6.99223
H         16.51352       14.52111        6.92360
C         18.00900       22.76900       12.26300
H         18.54947       22.69409       11.31633
H         17.28354       23.57900       12.15769
C         18.67300       19.93900        9.75800
H         19.42163       19.20228       10.04015
H         17.45809       21.83660       12.39910
N         17.22000       22.21900       14.94800
H         16.28219       22.38570       14.58371
C         17.35200       21.20500       15.79500
H         17.49189       19.12729       14.28331
C         16.46700       19.13900       14.66900
C         16.23300       20.17000       15.76600
H         16.24389       18.13728       15.05746
H         16.20662       19.68498       16.74902
H         14.28307       20.62493       16.24238
H         15.95026       28.56169        9.31907
H         13.83016       29.82698        7.07395
C         11.62900       30.56700        5.55400
H         14.49679       29.24270       10.04998
H         14.61817       27.73402       11.89249
C         15.50400       27.75500       11.24200
H         15.89005       28.61914       13.87160
O         14.06700       28.22100       14.82100
H         12.90630       28.83232       16.37212
H         13.37595       29.83786       13.27807
C         13.03600       28.65500       15.29200
N         12.39000       30.00500       13.53700
C         11.89300       28.98300       14.41900
H         11.06221       29.37157       15.01589
H         11.89891       30.06922       12.65427
C          9.51200       31.79800        5.65100
H         11.12914       32.27763       11.15684
O          9.67100       33.70600        7.05600
C          9.63200       32.48100        6.99400
C          8.02900       31.53400        5.40200
H          7.44380       32.45245        5.52852
H          8.53015       31.94861       11.24873
H          9.66217       33.26234        9.43544
H          7.54809       33.80901        9.81696
O          6.95100       33.11800        9.47300
N         10.29600       30.56000        5.58700
N          9.69800       31.68500        8.06200
C          9.71800       32.16800        9.44400
C         10.98800       31.81900       10.16300
O         11.81800       31.07200        9.67900
H          9.92295       29.83192        4.98339
H          7.66099       30.79535        6.12595
C         12.95800       28.45600        3.39400
O         11.83200       28.01500        3.17100
H         10.07122       30.75580        7.89451
C         12.32400       29.19200        5.64200
H         12.79948       23.17782       -0.70327
C         12.75400       22.15100       -1.08800
H         15.84229       26.85347        7.84416
C         13.03100       29.08400        6.97800
C         15.08100       28.32400        9.93200
H         12.33264       29.24965        7.80286
H         14.44197       27.62814        9.37960
C         19.03700       21.01600        8.94700
H         17.41826       21.42068        6.19219
H         16.49686       23.28903        6.64991
N         16.58300       20.91300        5.92400
H         18.35047       22.75316        7.92672
C         18.05800       21.91600        8.55300
H         16.16360       14.95462        4.02608
C         14.74500       13.76100        2.91800
O         13.82200       13.22200        5.88400
C          8.37500       23.61600       -2.48400
H          6.93057       28.38507       -1.24377
C          7.12200       24.51300       -2.36100
H          7.40582       25.51813       -2.03251
N          6.47600       28.02800       -0.41100
H          9.93898       22.79252       -1.19547
H          9.49856       24.45856       -0.85666
C          7.99000       22.20700       -2.98300
O          5.34300       21.29400       -2.50900
C          6.52300       28.93800        0.56100
H          6.38730       29.05280        2.54027
N          5.92500       28.68800        1.71900
C         16.04900       26.36500       11.04000
C         16.61300       17.87200        1.54100
H         14.95278       15.61349        1.90171
C         16.50400       19.06100        4.12800
C         15.72200       18.90600        1.86500
C         15.68300       19.47900        3.12900
H         14.97765       20.28727        3.32080
C         12.43800       21.21700        0.06000
H         13.15846       21.32979        0.87541
H         12.45589       20.17279       -0.26912
H         15.06437       19.30453        1.09503
H         13.89883       17.30523       -0.11578
H         13.89649       14.07865        3.53391
C         15.01800       13.50700        5.96100
N         15.54200       14.23900        6.94100
H         13.47987       28.09450        7.09679
H         14.53964       24.69897        7.12128
H         14.24304       23.13557        4.49927
H         11.56182       28.40562        5.58490
C         16.69200       19.50000        5.60400
H         15.93153       18.94512        6.16699
C         17.34700       19.77300       10.17600
H         15.11708       14.40283        8.95250
H         17.07602       18.91977       10.79194
O         15.80300       16.95200        7.88800
C         14.76200       16.31400        8.11400
C         14.71400       14.79900        8.01400
H         13.68162       14.44763        7.92026
H         11.44003       21.41476        0.45667
H         11.34477       18.58198        1.62547
H          8.22926       20.94653       -1.27029
N          7.52000       21.35500       -1.86800
H         11.04958       17.13941        2.56844
C          6.24400       20.96900       -1.72700
C          7.38700       19.24300        1.19000
H          7.60488       18.27494        1.64751
C          5.89600       20.06600       -0.55600
H          7.68183       19.01217       -0.88620
N          6.92200       19.07400       -0.21400
H          4.97945       19.51977       -0.80765
H         12.94878       25.76032        5.29824
C         14.20300       24.06400        5.07800
H         13.36134       25.51837        3.64772
C          9.10100       23.48500       -1.16300
H          8.41986       23.16615       -0.37846
H          8.29582       19.85447        1.18830
H          6.41041       24.10757       -1.63429
H         12.55292       23.04409        2.79702
C         13.08300       24.96300        4.55200
C         11.75300       23.77600        2.96100
H         11.95301       24.62243        2.28876
H         10.43135       23.22555        1.39842
H         10.46003       25.92017        4.57245
N         11.81900       24.28200        4.35500
C         10.44000       23.18200        2.49300
H          5.63797       27.71262        1.80346
H         15.82047       23.64697        8.98626
C         16.73300       21.75000        8.96100
C         15.57300       22.82100        7.00500
C         16.37400       20.68700        9.77200
C         15.64400       22.66400        8.53400
C         14.44000       23.76100        6.56900
C         15.44700       21.44000        6.37300
H         13.50355       23.32011        6.93542
O         14.36700       20.83100        6.39700
H         14.10913       25.47481       10.64102
H         12.41877       27.09332       13.43521
C         14.95700       25.34500       11.32100
H         15.33645       24.32890       11.18757
H         14.58986       25.42857       12.34923
H         15.94229       20.19554       12.91045
C         15.47700       19.48900       13.60700
N         14.91500       20.72500       15.44900
H         14.46033       18.78959        8.59378
N         13.58300       16.89600        8.23900
H         15.34998       20.53908       10.10404
H         13.84025       20.86501       13.61496
H         15.20154       18.61282       13.00995
C         14.33100       20.11400       14.23800
H         13.58612       19.36869       14.53769
H         12.01755       27.12086        8.61323
H          9.90115       28.39314        8.12692
H          9.85238       26.68248        6.48065
C         11.39800       26.34700        9.07400
H         11.39476       26.57949       10.14092
H         11.46833       28.34594       11.64038
H         11.16639       26.58546       15.53091
C         10.80500       27.96300       12.42300
H         10.35286       27.04858       12.02564
C         11.52800       27.68300       13.69000
C         10.65600       26.82500       14.59200
H         10.40927       25.87360       14.10721
H          9.71320       27.32601       14.83919
H          9.98586       28.67908       12.55945
H          8.63645       30.49223       10.27963
C          8.54900       31.58500       10.21400
C          7.25400       31.91600        9.57900
O          6.56100       31.00800        9.09900
C          9.37900       27.57700        8.64100
H          9.26800       27.87260        9.69112
H          8.37431       27.52165        8.20264
C         10.59100       24.90500        4.96200
C         10.14500       26.25000        8.49000
N         10.19300       25.95300        7.09400
H         10.46443       22.11288        2.74863
H         11.99365       25.42924        8.98023
H         14.66943       22.32470        8.90700
O         10.93700       23.84900        7.05700
H         12.60373       16.83763        5.18114
C          8.03300       23.10000        2.60400
H          8.05883       22.91920        1.53090
H          6.24323       21.81791        0.69331
H          6.74116       25.23906        1.30945
C          6.15800       24.80800        2.12400
N          9.28000       23.76300        3.00400
C          5.69400       20.87400        0.72900
H          4.63921       21.09787        0.91699
N          4.91100       25.43000        2.30000
H         12.87383       23.41222       11.74696
H         12.64054       18.75214        3.60686
H         11.37354       19.95533        3.63206
C         11.55300       18.87400        3.68200
H         11.60415       18.99302        5.78600
H          9.84111       18.41823        2.48450
C         10.91000       18.22500        2.56700
C         11.52100       16.94500        5.31700
C         11.09500       18.36200        5.04600
H         11.04328       16.21850        4.65216
O          8.14300       16.58900        4.86300
H         12.76781       16.33186        8.44834
O         12.88000       17.97600       10.72100
C         10.59100       24.86400        6.46600
H         13.01501       18.74001        7.56716
C         13.48400       18.31900        8.45900
C         12.64700       18.56500        9.67200
H         11.30667       16.65295        6.35035
H          8.03859       22.09736        3.05031
C          9.53700       18.54400        5.19400
H          9.04861       18.86869        4.27235
H          6.56446       20.50593        2.72455
C          6.27400       19.95400        1.83100
C          8.80200       17.26100        5.65800
H          8.93641       16.96425        6.71168
H          5.49274       19.24466        2.13468
H          3.22675       25.27880        3.51591
C          9.49800       23.98300        4.45900
C          6.66600       23.73900        2.87600
H          9.58969       22.99279        4.92856
H          8.55949       24.39228        4.85677
C          5.90500       23.21100        3.89700
C          4.65400       23.77400        4.13600
C          4.20700       24.83900        3.34800
H          9.61317       24.24452        9.03946
H         12.43573       22.00030        9.89569
C         11.55600       22.42100       10.39400
H         11.32510       23.32137        9.82252
H         11.72561       20.02877        8.66833
C         11.93600       22.85000       11.77300
H         11.18686       23.50944       12.22277
C         10.85800       19.97400       10.59400
H         12.08868       21.99536       12.43767
N         11.85000       19.61100        9.58400
H         11.27898       19.83972       11.59533
H          9.57067       21.67659       12.31483
H          9.18087       18.64394       11.29861
C          9.36400       25.28300        9.26800
H          9.48852       25.39100       10.35000
H          8.28835       25.34801        9.05506
C          7.36900       26.17000       12.29100
H          7.87400       26.25933       11.33234
H          9.04357       22.92200       11.16814
H          7.95995       25.52027       12.94404
H          7.35028       27.16560       12.74668
H          5.80477       28.31118       11.23833
C          4.89800       27.70300       11.14800
H          4.33442       28.10239       10.29731
H          4.30402       27.87415       12.05215
H          5.89436       26.20237       10.07541
C          5.23400       26.25900       10.95300
C          5.95900       25.62800       12.12700
H          5.42020       25.78427       13.06946
H          4.01906       23.38111        4.92205
C          3.97800       25.46400       10.65500
H          4.57408       24.86705        8.20984
H          3.36330       25.96155        9.89456
N          3.16700       25.25800       11.84900
H          2.76418       26.13915       12.15926
C          8.31300       21.47100        7.27600
H          8.91102       21.06205        8.06689
H         10.02833       21.53855        9.29956
H          8.74662       22.38022        6.86807
C          8.22100       20.37900        6.23200
C         10.36500       21.45300       10.31600
H          9.87474       19.57592        6.99464
H          6.25183       22.37973        4.50173
C          9.29900       21.86200       11.27000
N          9.30900       19.61900        6.15500
C          9.70700       18.98800       10.39300
O          6.72300       23.68900        6.90000
O          9.34100       18.67000        9.25100
O          7.17700       20.19700        5.58300
H          1.15353       24.36950        8.60130
H          1.09004       23.32932        6.33634
C          6.26500       22.72000        7.52100
N          4.56700       24.04200        8.79500
N          7.01500       21.68800        7.88400
C          1.29000       22.71800        7.21200
H          2.39219       24.63420       11.64555
C          4.88600       22.77700        8.14500
H          4.17687       22.65829        7.32247
H          1.45498       20.86615        6.09417
C          4.42000       24.14000       10.11400
H          8.37438       21.30431       11.08213
H          6.08966       24.55088       12.01524
C          1.32700       23.30200        8.49600
C          1.50000       21.33200        7.07500
H          1.57022       22.97907       10.58930
O          4.66700       23.24800       10.88700
H          4.74909       21.94688        8.82950
C          1.55600       22.51800        9.60700
H          6.55455       20.86700        8.26195
C          1.76000       21.15200        9.48400
C          1.72500       20.56700        8.21600
H          1.81365       19.49196        8.08687
H          4.22845       20.77886       10.32595
C          2.12100       20.35100       10.67000
C          3.59300       19.99600       10.73100
H          1.83274       20.90318       11.57624
H          3.45086       18.87950        8.98283
H          4.31013       20.81811       12.69565
H          1.48940       19.45132       10.70781
C          4.01500       19.88100       12.19400
N          3.80600       18.78800        9.92500
H          3.33021       18.00134       10.37080
O          3.93000       18.81000       12.78100
