488

H         27.47469       24.42330        5.45722
N         26.99200       23.87700        6.16900
O         26.94700       26.29100        7.77500
H         26.76332       22.97827        5.74664
H         25.50862       21.74187        7.39792
H         24.09875       22.38228        6.55502
H         25.07341       24.59931        5.73670
C         24.64600       22.40900        7.50500
H         24.34940       21.66363        9.50998
C         25.08700       23.84900        7.77600
H         25.75901       23.85474        8.64508
C         25.75700       24.56600        6.59300
C         26.02900       26.02500        6.99600
H         25.32615       26.78486        6.61878
O         18.30600       21.08500       16.56700
H         24.21530       24.44140        8.07548
H         19.58188       22.11221       13.50005
H         18.95833       23.21732       15.58562
H         20.51616       24.37786       13.91267
C         18.23600       23.24300       14.76200
H         21.44529       28.07052       12.45312
H         21.21415       29.66141       12.15020
N         20.89300       28.72600       11.90300
C         19.84300       24.14400       13.08000
H         22.11259       28.46737       10.22839
H         23.02131       22.68034        8.93137
H         20.48261       23.92290       12.21664
C         23.72800       21.89600        8.63700
N         22.95200       20.73000        8.23000
C         22.36700       19.87100        9.06400
H         22.11028       21.00723       10.64697
N         22.37600       20.07400       10.37000
H         21.80315       19.37820       10.83494
N         21.77600       18.78900        8.58900
N         17.22000       22.21900       14.94800
C         17.35200       21.20500       15.79500
H         17.49189       19.12729       14.28331
C         16.46700       19.13900       14.66900
C         16.23300       20.17000       15.76600
H         16.24389       18.13728       15.05746
H         16.20654       19.68496       16.74900
H         14.28269       20.62769       16.24230
H         15.11795       14.40329        8.95236
H         20.98084       30.03305        8.84908
H         22.89266       20.55778        7.22730
H         23.13077       18.37720        3.17500
H         17.00054       12.93422        5.40619
N         15.54200       14.23900        6.94100
O         13.82200       13.22200        5.88400
O         22.23300       15.97000        0.26500
O         22.71400       20.48200        5.02900
H         21.87084       18.83543        7.56524
C         22.27200       19.33700        4.84400
H         16.51198       14.52594        6.92161
O         21.83600       18.64700        5.77800
N         15.58200       11.63600        4.60400
H         14.55695       11.60515        4.58694
H         15.90617       11.35713        3.68389
C         22.16900       18.82700        3.44700
H         21.49812       17.75674        5.55592
H         21.42226       18.02299        3.42150
O         20.53100       15.68200        1.67200
C         16.04000       13.91500        3.69900
C         15.01800       13.50700        5.96100
H         18.15543       13.48769        3.36499
C         16.00300       12.98600        4.95500
H         13.89642       14.07809        3.53392
C         14.74500       13.76100        2.91800
H         17.08586       12.56279        2.29780
H         14.54765       12.72363        2.62741
H         22.54384       20.70108        2.49009
C         21.77900       19.91200        2.49600
C         17.22900       13.53400        2.78200
H         17.38892       14.28097        1.99964
H         19.57670       15.50905        1.63675
O         22.64200       19.50200        0.36100
C         21.69300       19.37400        1.10700
C         20.35500       18.22700       -0.58400
C         21.02300       16.08800        0.58600
C         20.08400       16.74500       -0.41300
H         20.17488       16.21180       -1.36754
H         21.26177       18.36936       -1.18225
C         21.93900       26.03900        8.62100
H         22.05913       25.58726        7.62992
H         22.17239       25.26882        9.36457
H         22.68780       26.83248        8.70637
C         21.04700       28.47300       10.47600
H         20.73981       26.38819       10.89884
C         18.96900       23.01700       13.38800
C         20.38200       27.13500       10.17400
H         18.18727       25.50087       15.00583
H         19.29584       25.06015       12.82978
H         16.28176       22.38657       14.58490
C         17.54900       24.62600       14.80100
O         16.32800       24.73500       14.56900
C         20.38100       29.59600        9.66400
H         15.89890       28.63778       13.87483
N         16.72900       28.28300       13.37000
O         15.17800       30.60000       12.38400
H         19.42147       19.20230       10.04052
O         19.23100       29.94300        9.91200
H         15.94229       20.19554       12.91045
C         15.47700       19.48900       13.60700
N         14.91500       20.72500       15.44900
H         15.20154       18.61282       13.00995
H         13.58617       19.36868       14.53776
C         14.33100       20.11400       14.23800
H         19.30834       27.24481       10.38882
H         17.07542       18.91971       10.79162
C         18.00900       22.76900       12.26300
H         17.45814       21.83657       12.39909
H         18.54946       22.69416       11.31632
C         18.67300       19.93900        9.75800
H         20.05607       21.12824        8.59574
H         19.54695       24.74934        9.43321
C         20.53200       26.57300        8.78600
H         17.28349       23.57897       12.15774
H         16.62802       27.27498       13.49350
H         12.90669       28.83405       16.37184
H         16.88768       26.14068       11.70809
H         17.55694       28.52869       11.46192
C         16.58800       28.65100       11.95500
C         16.19000       30.13200       11.81100
H         16.82449       30.75522       11.15953
H         13.32516       29.78560       13.16928
C         13.03600       28.65500       15.29200
O         14.06700       28.22100       14.82100
N         12.39000       30.00500       13.53700
C         11.89300       28.98300       14.41900
H         11.78909       30.19602       12.74397
H         11.06399       29.37179       15.01839
H         11.16714       26.58398       15.53012
H          9.71394       27.32662       14.84075
O         15.80300       16.95200        7.88800
C         14.76200       16.31400        8.11400
C         14.71400       14.79900        8.01400
H         13.68186       14.44678        7.92149
H         20.34938       27.34381        8.02855
H         19.01501       30.04458        7.47538
N         18.62600       30.44400        6.62700
H         19.36613       30.89488        6.09422
C         19.49000       25.49000        8.62700
H         19.62511       24.95070        7.68640
H         19.84436       25.49797        5.50159
C         19.03700       21.01600        8.94700
C         16.37400       20.68700        9.77200
C         17.34700       19.77300       10.17600
O         19.06100       19.93800        5.72900
H         18.13758       18.66815        6.99226
C         17.85300       29.51600        5.83700
H         18.51396       28.88611        5.23441
C         10.65600       26.82500       14.59200
H         10.40783       25.87442       14.10635
H         13.84022       20.86499       13.61496
H         15.34953       20.53859       10.10309
H         14.45977       18.79145        8.59084
C         13.48400       18.31900        8.45900
O         12.88000       17.97600       10.72100
H         12.75303       16.33748        8.39946
N         13.58300       16.89600        8.23900
H         17.72343       28.19600        7.55115
C         17.04700       28.64200        6.81100
H         20.24100       20.45668        3.88594
N         20.52400       18.86800        0.71900
N         20.53600       20.55900        2.91800
H         17.81202       16.84030        5.55429
H         19.28036       17.53670        4.83415
C         20.08900       21.66100        2.29200
O         18.66000       23.05400        5.41700
O         20.74900       22.24300        1.40300
H         19.68735       19.21107        1.18437
H         16.16374       14.95459        4.02608
H         19.05080       16.57379       -0.08765
H         18.66342       20.70847        5.29355
C         18.06700       18.94500        5.93600
H         18.33628       21.58603        3.54421
C         18.22600       17.72600        5.05700
H         15.93190       18.94510        6.16740
C         14.74200       14.56100        1.69800
H         15.44629       14.20510        0.94009
H         13.75261       14.52869        1.22630
H         17.38652       30.56980        3.91436
C         18.95700       25.37200        4.87600
H         19.16464       27.17402        3.96070
N         19.10600       26.19900        3.68800
N         18.81900       23.60000        3.21700
H         19.18627       24.29126        2.55712
O         19.00300       25.30900        0.69200
C         18.55500       26.44600        0.65300
H         19.13326       27.31860        0.99966
H         18.22256       26.10962        3.16985
H         16.80529       27.62649        0.47749
C         17.50000       17.36300        2.49600
C         17.47600       17.90400        3.76000
C         16.61300       17.87200        1.54100
H         18.16271       16.55725        2.26209
H         14.95339       15.61338        1.90142
C         16.50400       19.06100        4.12800
C         18.72100       22.21100        2.73800
C         17.22700       26.75100       -0.02600
H         16.51034       27.15596       -1.91100
N         17.40700       27.05400       -1.43700
H         17.61312       21.08969        1.21357
H         17.98152       22.74959        0.73717
H         16.66559       17.49594        0.52908
C         19.21200       18.80700       -1.37100
O         18.38300       19.52300       -0.84600
H         19.15600       18.52424       -2.43588
H         15.41850       16.84685       -0.89753
H         14.12699       14.88170       -2.09493
H         12.64900       15.43932       -1.31337
C         13.29700       15.59200       -2.18400
H         14.99179       16.20927       -3.91180
H         12.71415       15.32025       -3.07101
H         17.88121       26.27086       -1.89583
H         14.58970       25.42867       12.34916
H         12.41905       27.09384       13.43498
C         11.52800       27.68300       13.69000
H         18.47767       25.90737        8.62485
H         16.43264       26.21775       10.02398
H         15.33652       24.32890       11.18777
C         16.04900       26.36500       11.04000
C         14.95700       25.34500       11.32100
C         15.08100       28.32400        9.93200
H         14.61824       27.73390       11.89255
H         15.95037       28.56190        9.31927
H         14.49647       29.24245       10.04990
C         15.50400       27.75500       11.24200
H         18.35055       22.75373        7.92762
C         18.05800       21.91600        8.55300
C         16.73300       21.75000        8.96100
H         16.30428       29.25619        7.33029
H         15.85404       29.11321        1.91353
O         15.84300       30.67800        5.23700
C         16.94500       30.29200        4.88600
H          9.97153       28.66088       12.56634
H         13.84803       29.80899        7.06125
O         12.30300       31.61800        5.50400
C         12.64700       18.56500        9.67200
H         12.08843       21.99540       12.43778
H         11.27906       19.84004       11.59535
N         11.85000       19.61100        9.58400
H          9.18216       18.64318       11.29878
H          5.80344       28.31048       11.25252
H          4.29086       27.86967       12.04444
H          5.42014       25.78406       13.06946
H          2.57770       26.06770       12.02427
C         16.69200       19.50000        5.60400
H          7.96131       25.51774       12.94030
H          7.35044       27.16343       12.75137
C         11.93600       22.85000       11.77300
H         11.18699       23.50968       12.22264
H         12.87398       23.41197       11.74696
H          9.57107       21.67731       12.31487
H         15.85013       26.84463        7.84500
C         15.64400       22.66400        8.53400
H         15.82053       23.64697        8.98623
C         18.84500       23.90300        4.52000
H         17.41647       21.41396        6.20852
N         16.58300       20.91300        5.92400
H         18.07122       25.65361        5.44403
H         14.66943       22.32479        8.90707
O         14.36700       20.83100        6.39700
H         14.09617       29.61308        4.53086
N         15.21300       29.11100        2.70200
H         13.63731       28.70362        1.40291
H         14.10923       25.47466       10.64087
H         10.37245       27.04465       12.01381
C         10.80500       27.96300       12.42300
H         14.44277       27.62774        9.37917
H         11.46417       28.37313       11.65061
H          7.87276       26.26389       11.33205
C          7.36900       26.17000       12.29100
H         12.43515       21.99951        9.89523
C         11.62900       30.56700        5.55400
H         10.52750       30.57398        5.56626
C         13.03100       29.08400        6.97800
H         12.34130       29.27980        7.80524
H         13.01023       18.73571        7.56483
C         10.85800       19.97400       10.59400
C          9.70700       18.98800       10.39300
O          9.34100       18.67000        9.25100
C         16.31600       27.51300        6.14600
C         15.57300       22.82100        7.00500
H         15.67963       28.57503        3.44494
H         16.49689       23.28895        6.64985
C         15.44700       21.44000        6.37300
O         16.23600       27.45800        4.90500
O         16.39900       25.78000        2.45300
O         15.76200       26.69600        6.88200
H          9.48741       25.39172       10.35005
H         11.39559       26.57865       10.14102
H         13.45821       28.08611        7.10653
H          9.26798       27.87177        9.69141
H          8.37393       27.52013        8.20357
C         11.55600       22.42100       10.39400
H         11.32519       23.32122        9.82231
C         10.36500       21.45300       10.31600
H         11.64192       19.93871        8.64595
C          9.29900       21.86200       11.27000
N         13.30100       28.96700        4.56900
H          9.89991       28.39452        8.12675
H         15.27865       25.64901        5.24663
H          6.08987       24.55096       12.01502
C          5.23400       26.25900       10.95300
C          5.95900       25.62800       12.12700
C          4.89800       27.70300       11.14800
H          4.34493       28.10458       10.29147
N          3.16700       25.25800       11.84900
H          2.55199       24.45525       11.71742
C         14.62800       17.16200       -3.51400
H         16.12618       18.27319       -4.37504
H         13.25853       17.07760       -5.25168
C         17.68200       22.11700        1.57800
C         15.68300       19.47900        3.12900
H         16.69673       22.44211        1.92456
N         15.75000       18.10200       -3.44000
C         13.78100       17.00500       -2.24500
C         15.72200       18.90600        1.86500
C         14.51800       17.45500       -1.00700
H         14.97637       20.28568        3.32259
H         13.89949       17.30418       -0.11565
H         15.93675       25.40102        3.25416
C         14.04300       28.33100        2.34900
O         15.24200       24.88400        4.63400
H         14.28592       27.27877        2.23517
H         14.78644       18.51336       -1.04985
C         15.75900       25.33600        1.49300
H         16.74720       24.65308       -0.24893
C         16.25800       25.57200        0.08400
H         15.37198       25.75608       -0.53662
O         14.73100       24.67500        1.64500
H         15.06311       19.30327        1.09582
H         15.26715       22.02277       -0.05691
H         16.21315       21.76229       -1.51342
H         15.45485       23.34035       -1.22162
H         14.10181       20.73974       -1.93728
C         15.32300       22.26400       -1.12200
H         15.39185       19.03630       -3.19047
H         12.87675       17.63074       -2.26093
C         13.61800       17.72600       -4.43600
C         15.34500       22.25500       -3.87000
O         13.16900       18.86100       -4.26300
O         15.77900       21.11100       -4.07200
H         15.91607       23.16043       -4.12967
H         11.99439       25.42985        8.97889
C         11.39800       26.34700        9.07400
H         14.53953       24.69889        7.12144
H         12.01646       27.12222        8.61402
C         14.44000       23.76100        6.56900
H         13.50357       23.32010        6.93542
C         12.32400       29.19200        5.64200
C         12.95800       28.45600        3.39400
C          9.37900       27.57700        8.64100
H         11.53912       28.43014        5.57706
O         11.83200       28.01500        3.17100
H         10.01995       21.53690        9.30011
H          9.04307       22.92184       11.16764
H          8.37464       21.30373       11.08288
H          5.89477       26.20239       10.07574
H          8.91691       21.00989        8.03726
C          4.42000       24.14000       10.11400
C          3.97800       25.46400       10.65500
H          3.36202       25.95582        9.89171
O          4.66700       23.24800       10.88700
N          4.56700       24.04200        8.79500
H          4.74111       21.94700        8.84449
H         14.24314       23.13564        4.49922
C          9.36400       25.28300        9.26800
H          8.28848       25.34711        9.05413
H         12.94887       25.76028        5.29830
H          9.61406       24.24458        9.04029
C         14.20300       24.06400        5.07800
H         13.36147       25.51835        3.64784
C         10.14500       26.25000        8.49000
O         10.93700       23.84900        7.05700
H          9.82324       26.67198        6.48370
N         10.19300       25.95300        7.09400
H          6.56780       20.88165        8.30423
H          9.14836       19.82797        6.00546
C          8.31300       21.47100        7.27600
N          7.01500       21.68800        7.88400
C          8.22100       20.37900        6.23200
O          7.17700       20.19700        5.58300
C         13.08300       24.96300        4.55200
C         10.59100       24.86400        6.46600
H          8.77239       22.37309        6.88317
H         12.55321       23.04446        2.79689
H         10.46011       25.92031        4.57287
N         11.81900       24.28200        4.35500
C          4.88600       22.77700        8.14500
H          4.60645       24.87376        8.21926
H          5.49265       19.24466        2.13445
H          7.61153       18.27674        1.64890
H         13.32173       20.79350       -4.24917
H         13.16011       21.32861        0.87409
C         14.04100       21.83300       -1.83700
H         12.45318       20.17275       -0.26925
C         13.97900       22.44900       -3.23300
N         12.98300       21.75500       -4.06600
H         13.75778       23.52093       -3.19987
C         12.43800       21.21700        0.06000
C         11.75300       23.77600        2.96100
H         11.95283       24.62250        2.28859
C         12.75400       22.15100       -1.08800
H         12.79959       23.17804       -0.70277
H         11.44104       21.41701        0.45787
C          7.38700       19.24300        1.19000
H          7.68186       19.01530       -0.88667
H          4.97944       19.51978       -0.80766
N          6.92200       19.07400       -0.21400
H         11.89098       22.12960       -1.74966
H         12.11886       21.56740       -3.55541
O          9.97300       20.91100       -2.92900
C         10.59100       24.90500        4.96200
H         10.46554       22.11265        2.74976
H          9.58871       22.99306        4.92920
C          6.26500       22.72000        7.52100
H          8.29629       19.85431        1.18867
O          6.72300       23.68900        6.90000
C          6.27400       19.95400        1.83100
H          4.16013       22.65184        7.33463
H          6.56388       20.50652        2.72431
H          4.63918       21.09784        0.91693
H          4.01822       23.38313        4.92216
C          8.03300       23.10000        2.60400
C         10.44000       23.18200        2.49300
H          8.55958       24.39292        4.85637
C          9.49800       23.98300        4.45900
H          8.03831       22.09768        3.05079
H          6.25173       22.38100        4.50310
H         10.43107       23.22476        1.39845
C          5.90500       23.21100        3.89700
N          9.28000       23.76300        3.00400
C          4.65400       23.77400        4.13600
C          5.69400       20.87400        0.72900
C          5.89600       20.06600       -0.55600
H          8.05881       22.91839        1.53104
H          8.22841       20.94928       -1.26775
H          6.24315       21.81796        0.69324
C          6.24400       20.96900       -1.72700
C          9.25500       21.63600       -3.58100
H          9.50578       21.96632       -4.60314
O          5.34300       21.29400       -2.50900
H          8.41586       23.17938       -0.37660
H          9.93067       22.78217       -1.19057
C          9.10100       23.48500       -1.16300
H          9.51065       24.45638       -0.86315
N          7.52000       21.35500       -1.86800
C          7.99000       22.20700       -2.98300
C          8.37500       23.61600       -2.48400
H          9.04453       24.09720       -3.20937
H          7.23472       22.24336       -3.77499
C          6.66600       23.73900        2.87600
C          4.20700       24.83900        3.34800
H          3.22744       25.28010        3.51801
N          4.91100       25.43000        2.30000
C          6.15800       24.80800        2.12400
H          6.74142       25.23916        1.30995
H          6.40987       24.10702       -1.63511
C          7.12200       24.51300       -2.36100
H          6.61545       24.60259       -3.32732
H          7.40536       25.51792       -2.03161
H          5.57181       27.72716        1.73355
N          5.92500       28.68800        1.71900
H          6.52047       28.84339        2.51983
C          6.52300       28.93800        0.56100
N          6.47600       28.02800       -0.41100
H          6.69710       30.86847        0.86982
H          6.94144       28.37291       -1.24369
N          7.14300       30.10200        0.37800
H          7.09599       30.61252       -1.64799
H          8.50874       29.66429       -1.14277
C          7.82800       30.47100       -0.84400
H          9.29190       31.58974        0.21764
H          7.95265       32.54602       -0.38810
C          8.62300       31.71600       -0.64400
C          9.43500       32.06100       -1.86200
H          8.76873       32.26568       -2.71125
H         10.03291       31.18771       -2.15767
C         10.38500       33.25100       -1.64200
H         10.97822       33.10483       -0.73183
H          9.18102       34.58297       -0.62950
H         10.31055       35.31230       -1.56601
C         11.34800       33.30500       -2.78000
N          9.66100       34.52800       -1.52500
H         12.37248       32.93885       -2.60840
O         10.96400       33.68200       -3.90600
