30

H 19.32088000 29.95432000 7.18965000
H 19.15124000 31.08293000 6.02958000
N 18.62600000 30.44400000 6.62700000
H 17.73236000 28.19055000 7.54076000
H 16.30917000 29.24211000 7.35824000
H 18.51108000 28.89027000 5.22329000
C 17.04700000 28.64200000 6.81100000
C 17.85300000 29.51600000 5.83700000
H 17.37331000 30.54167000 3.90112000
O 15.84300000 30.67800000 5.23700000
C 16.94500000 30.29200000 4.88600000
H 15.82618000 26.87366000 7.84316000
O 15.76200000 26.69600000 6.88200000
C 16.31600000 27.51300000 6.14600000
O 16.23600000 27.45800000 4.90500000
O 14.73100000 24.67500000 1.64500000
H 15.94717000 25.44373000 3.27327000
O 16.39900000 25.78000000 2.45300000
C 15.75900000 25.33600000 1.49300000
H 15.36766000 25.77249000 -0.52671000
H 16.71323000 24.63919000 -0.26947000
H 16.80493000 27.62664000 0.48083000
C 16.25800000 25.57200000 0.08400000
C 17.22700000 26.75100000 -0.02600000
H 19.12056000 27.31571000 1.02587000
O 19.00300000 25.30900000 0.69200000
C 18.55500000 26.44600000 0.65300000
H 17.81881000 26.24303000 -1.90532000
H 16.50431000 27.20494000 -1.88706000
N 17.40700000 27.05400000 -1.43700000
