63

H 16.30943000 29.24191000 7.35872000
O 15.84300000 30.67800000 5.23700000
H 19.15339000 31.08593000 6.03465000
H 17.37393000 30.54421000 3.90202000
C 16.94500000 30.29200000 4.88600000
H 19.31585000 29.95964000 7.20056000
N 18.62600000 30.44400000 6.62700000
H 15.36771000 25.77236000 -0.52679000
H 17.82779000 26.24817000 -1.90643000
H 16.50567000 27.20065000 -1.89134000
N 17.40700000 27.05400000 -1.43700000
H 16.71346000 24.63922000 -0.26921000
C 16.25800000 25.57200000 0.08400000
O 14.73100000 24.67500000 1.64500000
H 16.80523000 27.62668000 0.48097000
C 17.22700000 26.75100000 -0.02600000
H 19.13129000 27.31879000 1.00251000
O 16.23600000 27.45800000 4.90500000
O 15.76200000 26.69600000 6.88200000
H 15.81700000 26.87006000 7.84521000
H 18.51303000 28.89378000 5.22501000
C 17.85300000 29.51600000 5.83700000
C 17.04700000 28.64200000 6.81100000
H 17.73262000 28.18984000 7.54007000
C 16.31600000 27.51300000 6.14600000
H 19.17181000 27.17378000 3.96328000
C 15.75900000 25.33600000 1.49300000
H 15.90034000 25.46115000 3.25741000
O 16.39900000 25.78000000 2.45300000
O 19.00300000 25.30900000 0.69200000
C 18.55500000 26.44600000 0.65300000
H 18.22557000 26.12517000 3.16229000
C 18.95700000 25.37200000 4.87600000
N 19.10600000 26.19900000 3.68800000
H 18.07103000 25.65157000 5.44438000
H 19.84250000 25.49450000 5.50675000
C 18.84500000 23.90300000 4.52000000
H 18.98047000 23.61161000 3.46545000
O 18.66000000 23.05400000 5.41700000
H 21.41503000 17.80252000 5.54169000
O 21.83600000 18.64700000 5.77800000
O 22.71400000 20.48200000 5.02900000
H 20.73807000 21.07783000 3.78484000
C 22.27200000 19.33700000 4.84400000
N 20.53600000 20.55900000 2.91800000
H 20.30923000 21.29945000 2.24719000
H 21.43247000 18.01370000 3.41196000
H 23.13636000 18.38668000 3.17749000
C 22.16900000 18.82700000 3.44700000
C 21.77900000 19.91200000 2.49600000
H 22.55489000 20.68946000 2.48157000
C 21.69300000 19.37400000 1.10700000
H 20.78821000 18.80401000 0.83746000
O 22.64200000 19.50200000 0.36100000
H 6.78685000 21.74987000 7.55131000
H 4.15784000 22.54490000 7.36156000
H 4.83306000 21.98141000 8.89502000
H 4.85178000 24.80076000 8.16952000
H 3.56017000 24.12709000 8.91717000
O 6.72300000 23.68900000 6.90000000
C 6.26500000 22.72000000 7.52100000
N 4.56700000 24.04200000 8.79500000
C 4.88600000 22.77700000 8.14500000
