697

H 3.74858000 22.13159000 15.94624000
O 3.57500000 23.13900000 14.18200000
H 2.29248000 24.80213000 11.60074000
H 4.27875000 20.10019000 14.71103000
H 1.49525000 19.44751000 10.69831000
O 3.93000000 18.81000000 12.78100000
C 3.92100000 22.17900000 14.85800000
C 4.68900000 21.00500000 14.24800000
H 6.27693000 21.26801000 15.71417000
H 7.50102000 31.33378000 17.22333000
H 3.62543000 24.57684000 12.47054000
N 3.16700000 25.25800000 11.84900000
H 6.15466000 32.31992000 15.44217000
H 5.30697000 30.78813000 15.19221000
H 5.42511000 25.77792000 13.07287000
C 4.89800000 27.70300000 11.14800000
H 4.35493000 27.88154000 12.08210000
H 7.31841000 29.40010000 15.70247000
H 8.72731000 29.53220000 18.29423000
C 5.95900000 25.62800000 12.12700000
H 6.12262000 23.26143000 14.06187000
C 6.79600000 22.40800000 13.93900000
C 6.19900000 21.15500000 14.62500000
H 8.02977000 23.15379000 15.50561000
C 6.96700000 19.88800000 14.20300000
H 6.49149000 18.99346000 14.61901000
H 6.27769000 29.10420000 13.51986000
C 5.96100000 31.52600000 14.71300000
H 5.38978000 31.98518000 13.89768000
H 4.28626000 28.09029000 10.32546000
H 6.37727000 30.38474000 12.30493000
H 5.80837000 28.30816000 11.16746000
H 6.87510000 22.23487000 12.85989000
N 4.48300000 20.96900000 12.79200000
H 1.82784000 20.90648000 11.57218000
H 4.50233000 21.85969000 12.28535000
H 6.09359000 24.55434000 12.00081000
H 1.57293000 22.98267000 10.58883000
C 1.55600000 22.51800000 9.60700000
C 3.97800000 25.46400000 10.65500000
C 1.76000000 21.15200000 9.48400000
C 5.23400000 26.25900000 10.95300000
C 1.32700000 23.30200000 8.49600000
H 3.36472000 25.96855000 9.89859000
H 1.15505000 24.37000000 8.60214000
C 1.50000000 21.33200000 7.07500000
C 1.29000000 22.71800000 7.21200000
H 1.09184000 23.33044000 6.33671000
H 1.46640000 20.86810000 6.09307000
C 4.01500000 19.88100000 12.19400000
C 2.12100000 20.35100000 10.67000000
H 5.89242000 26.20180000 10.07393000
C 1.72500000 20.56700000 8.21600000
H 1.87467000 19.49591000 8.09871000
O 4.66700000 23.24800000 10.88700000
C 3.59300000 19.99600000 10.73100000
C 4.42000000 24.14000000 10.11400000
H 4.20387000 20.79075000 10.30887000
N 4.56700000 24.04200000 8.79500000
H 4.55473000 24.86612000 8.20806000
H 7.99619000 19.91113000 14.57381000
H 7.00510000 19.77891000 13.11410000
H 3.28018000 17.96195000 10.18907000
N 3.80600000 18.78800000 9.92500000
H 4.17655000 22.65729000 7.32296000
C 7.22200000 30.91900000 14.20700000
H 8.70971000 32.73471000 15.60655000
N 9.20000000 32.12700000 16.25800000
H 7.85639000 31.70138000 13.77616000
C 4.88400000 18.62400000 9.17000000
H 4.21162000 17.79821000 7.32913000
H 4.39698000 16.60086000 8.62274000
C 7.93700000 30.24700000 15.36500000
H 9.99926000 31.76766000 15.71476000
C 8.35300000 30.99500000 16.62800000
C 9.22900000 30.08400000 17.48300000
O 10.40900000 29.92300000 17.19400000
C 6.90900000 29.91400000 13.13900000
C 8.11000000 22.82100000 14.46500000
H 8.52854000 23.64937000 13.88939000
H 8.84543000 22.01246000 14.44175000
H 8.37174000 21.31245000 11.07242000
H 12.13983000 33.95918000 13.28921000
H 8.82560000 29.75547000 14.94600000
C 7.36900000 26.17000000 12.29100000
H 7.98242000 25.49899000 12.89365000
H 7.35167000 27.13320000 12.80417000
H 7.82274000 29.47312000 12.73169000
O 10.66000000 31.40800000 13.91000000
H 7.85508000 26.32023000 11.32899000
H 9.96524000 28.64878000 12.57310000
C 10.65600000 26.82500000 14.59200000
H 11.06191000 29.35288000 15.01356000
H 9.70912000 27.32121000 14.83247000
H 11.16194000 26.59228000 15.53479000
C 9.29900000 21.86200000 11.27000000
H 9.05334000 22.92546000 11.18584000
H 9.57786000 21.65054000 12.30546000
H 10.41633000 25.87061000 14.10957000
H 12.90542000 28.83660000 16.37182000
H 14.29304000 33.90829000 14.35688000
H 12.86368000 24.62845000 17.14490000
N 12.13800000 22.07800000 17.16200000
H 11.47317000 22.84530000 17.17219000
H 12.78301000 22.23232000 17.94763000
H 12.06477000 23.78590000 14.91345000
H 12.40468000 21.37960000 15.23091000
C 12.91000000 22.04300000 15.93600000
O 14.69200000 21.66600000 17.47300000
H 16.23998000 18.13995000 15.06204000
C 13.03100000 23.46700000 15.31900000
C 13.54200000 24.47800000 16.30000000
C 14.28000000 21.50300000 16.32500000
H 16.19034000 19.69446000 16.75361000
H 13.84698000 20.86471000 13.61093000
N 14.91500000 20.72500000 15.44900000
C 14.33100000 20.11400000 14.23800000
H 14.53179000 24.22260000 16.69290000
C 16.23300000 20.17000000 15.76600000
O 6.40800000 15.34200000 8.87000000
H 11.27890000 19.83967000 11.59540000
H 13.58351000 19.38410000 14.56726000
H 9.17590000 18.64885000 11.29771000
H 15.20169000 18.62275000 12.99623000
H 10.45059000 33.00086000 11.73202000
H 7.55235000 33.80791000 9.81091000
O 6.95100000 33.11800000 9.47300000
H 8.63681000 30.49209000 10.27739000
H 8.51251000 31.94430000 11.24889000
O 6.56100000 31.00800000 9.09900000
C 8.54900000 31.58500000 10.21400000
C 7.25400000 31.91600000 9.57900000
H 9.64891000 33.26261000 9.42442000
C 10.36500000 21.45300000 10.31600000
H 4.74930000 21.94861000 8.83016000
C 4.88600000 22.77700000 8.14500000
O 5.87300000 19.34200000 9.28000000
C 6.26500000 22.72000000 7.52100000
O 6.72300000 23.68900000 6.90000000
C 4.85500000 17.48000000 8.15700000
C 6.81200000 16.06200000 7.98300000
H 6.58696000 20.88911000 8.35851000
H 10.02819000 21.53899000 9.29962000
N 7.01500000 21.68800000 7.88400000
C 9.70700000 18.98800000 10.39300000
C 10.85800000 19.97400000 10.59400000
O 9.34100000 18.67000000 9.25100000
H 8.74622000 22.38002000 6.86730000
N 6.14100000 17.13200000 7.56300000
H 6.56236000 17.76271000 6.89040000
O 7.17700000 20.19700000 5.58300000
H 8.91120000 21.06153000 8.06666000
C 8.31300000 21.47100000 7.27600000
N 11.85000000 19.61100000 9.58400000
H 5.63565000 27.71334000 1.80286000
C 11.70700000 31.12800000 13.31800000
N 11.16100000 32.40800000 11.32600000
H 13.72753000 32.25044000 14.55867000
C 12.89600000 33.33800000 12.79500000
O 13.45100000 34.08200000 11.70700000
H 13.99795000 34.79647000 12.08008000
C 14.02700000 32.99200000 13.81600000
H 14.94172000 32.68959000 13.30591000
H 11.73270000 20.03659000 8.67138000
H 9.08981000 17.66519000 7.63837000
C 8.17400000 15.77100000 7.40500000
H 8.79829000 15.35312000 8.20268000
H 8.07468000 15.01662000 6.61799000
O 6.66100000 30.41000000 3.83300000
H 6.03055000 30.41158000 4.58396000
O 14.71400000 34.99100000 7.89400000
C 12.24800000 32.05300000 12.21500000
H 14.67423000 33.48516000 9.79232000
C 13.03600000 28.65500000 15.29200000
N 12.39000000 30.00500000 13.53700000
C 11.89300000 28.98300000 14.41900000
C 10.98800000 31.81900000 10.16300000
C 10.80500000 27.96300000 12.42300000
H 10.38851000 27.04425000 12.00020000
C 15.47700000 19.48900000 13.60700000
C 16.46700000 19.13900000 14.66900000
H 17.49564000 19.11460000 14.29457000
O 18.30600000 21.08500000 16.56700000
H 12.10131000 21.99421000 12.43287000
H 11.18265000 23.49987000 12.22945000
C 11.93600000 22.85000000 11.77300000
H 13.65877000 25.45314000 15.81180000
H 12.43582000 22.00079000 9.89545000
C 11.55600000 22.42100000 10.39400000
H 11.32495000 23.32144000 9.82297000
H 13.32791000 29.89871000 13.13844000
H 13.00195000 31.51159000 11.63678000
C 11.52800000 27.68300000 13.69000000
H 11.46169000 28.40393000 11.66533000
O 14.06700000 28.22100000 14.82100000
H 12.42029000 27.09677000 13.43344000
H 12.86623000 23.42334000 11.73851000
H 15.87462000 28.57363000 13.87077000
O 15.17800000 30.60000000 12.38400000
H 14.67595000 24.09164000 14.38730000
O 13.97100000 23.41900000 14.24400000
C 17.35200000 21.20500000 15.79500000
H 15.94290000 20.20230000 12.91786000
H 14.57642000 25.44444000 12.34226000
C 6.52300000 28.93800000 0.56100000
H 6.38741000 29.05212000 2.54037000
N 6.47600000 28.02800000 -0.41100000
N 5.92500000 28.68800000 1.71900000
H 7.41828000 30.59960000 1.22121000
H 7.95222000 32.54454000 -0.38504000
N 7.14300000 30.10200000 0.37800000
H 9.12867000 34.55100000 -0.65744000
H 10.31571000 35.30777000 -1.49445000
N 9.66100000 34.52800000 -1.52500000
O 10.96400000 33.68200000 -3.90600000
C 9.71800000 32.16800000 9.44400000
H 7.66093000 30.79534000 6.12592000
C 7.75200000 31.00400000 4.01500000
C 8.02900000 31.53400000 5.40200000
O 8.59100000 31.19200000 3.10400000
H 7.44383000 32.45247000 5.52853000
O 9.67100000 33.70600000 7.05600000
H 16.30952000 22.36268000 14.51715000
N 17.22000000 22.21900000 14.94800000
O 16.32800000 24.73500000 14.56900000
C 17.54900000 24.62600000 14.80100000
C 18.23600000 23.24300000 14.76200000
H 17.46153000 21.83428000 12.39690000
H 18.18809000 25.50024000 15.00707000
H 19.58193000 22.11225000 13.50002000
H 18.95822000 23.21724000 15.58568000
N 8.86500000 16.95200000 6.94500000
C 12.64700000 18.56500000 9.67200000
C 13.48400000 18.31900000 8.45900000
O 12.88000000 17.97600000 10.72100000
H 14.46030000 18.78963000 8.59378000
H 12.76205000 16.33228000 8.42706000
N 13.58300000 16.89600000 8.23900000
O 15.80300000 16.95200000 7.88800000
H 13.63168000 34.09452000 6.43787000
C 14.18100000 34.03400000 7.39300000
O 11.81800000 31.07200000 9.67900000
N 9.69800000 31.68500000 8.06200000
H 13.20237000 32.32054000 8.09449000
C 9.63200000 32.48100000 6.99400000
H 10.03351000 30.74148000 7.90096000
C 9.51200000 31.79800000 5.65100000
H 9.91882000 32.47804000 4.89158000
H 5.49138000 19.24178000 2.12418000
H 6.55934000 20.49495000 2.73275000
H 4.64138000 21.11333000 0.90896000
H 4.98039000 19.51332000 -0.80311000
O 5.34300000 21.29400000 -2.50900000
O 8.14300000 16.58900000 4.86300000
H 9.95884000 19.66982000 6.92811000
C 8.22100000 20.37900000 6.23200000
C 8.80200000 17.26100000 5.65800000
H 11.36617000 16.66458000 6.36255000
N 9.30900000 19.61900000 6.15500000
H 13.01485000 18.74006000 7.56726000
C 6.27400000 19.95400000 1.83100000
C 5.69400000 20.87400000 0.72900000
C 9.53700000 18.54400000 5.19400000
H 9.04582000 18.87093000 4.27428000
H 7.58856000 18.28811000 1.67563000
H 11.60839000 18.99220000 5.78346000
C 11.09500000 18.36200000 5.04600000
H 7.49157000 15.92936000 -2.10451000
H 6.93014000 28.38561000 -1.24389000
H 8.76773000 32.26733000 -2.71011000
H 7.09753000 30.60821000 -1.64985000
C 8.62300000 31.71600000 -0.64400000
H 9.29599000 31.58955000 0.21443000
C 7.82800000 30.47100000 -0.84400000
C 9.43500000 32.06100000 -1.86200000
C 10.38500000 33.25100000 -1.64200000
H 10.97660000 33.10347000 -0.73096000
C 11.34800000 33.30500000 -2.78000000
H 12.37242000 32.93936000 -2.60728000
H 16.71826000 27.27061000 13.48236000
N 16.72900000 28.28300000 13.37000000
H 20.51610000 24.37789000 13.91270000
H 14.42287000 31.89863000 9.86837000
C 16.19000000 30.13200000 11.81100000
N 14.88800000 32.60800000 9.30200000
C 14.23800000 32.65500000 8.01100000
H 16.82123000 30.75441000 11.15454000
C 11.52100000 16.94500000 5.31700000
H 11.01292000 16.21236000 4.68205000
H 13.68170000 14.44731000 7.92064000
H 15.11743000 14.40305000 8.95244000
O 15.19200000 8.47000000 1.82800000
N 16.97400000 6.84700000 0.38100000
H 17.62494000 6.76385000 -0.39592000
H 16.08905000 7.18460000 -0.00759000
H 18.13484000 7.26576000 2.02228000
N 10.29600000 30.56000000 5.58700000
H 9.92037000 29.83243000 4.98363000
O 12.30300000 31.61800000 5.50400000
H 8.82410000 15.25585000 -1.39800000
H 11.02874000 17.13702000 2.57942000
C 7.22700000 18.11400000 -1.09000000
C 7.38700000 19.24300000 1.19000000
N 6.92200000 19.07400000 -0.21400000
C 8.32400000 17.13700000 -0.70200000
C 5.89600000 20.06600000 -0.55600000
H 8.42799000 17.04816000 0.37827000
O 6.52800000 17.89600000 -2.08000000
N 7.99700000 15.81600000 -1.22000000
H 8.90172000 18.04774000 -3.29575000
N 7.52000000 21.35500000 -1.86800000
C 6.24400000 20.96900000 -1.72700000
H 6.24764000 21.81528000 0.68988000
H 6.41055000 24.10760000 -1.63413000
C 7.12200000 24.51300000 -2.36100000
H 7.23481000 22.24304000 -3.77505000
H 7.40580000 25.51818000 -2.03266000
H 6.61484000 24.60184000 -3.32706000
H 14.75701000 31.99476000 7.31303000
H 14.49342000 29.24053000 10.05087000
C 16.58800000 28.65100000 11.95500000
H 14.61803000 27.73459000 11.89235000
H 15.33949000 24.32790000 11.20591000
H 12.33964000 29.27121000 7.80398000
H 14.11734000 25.46445000 10.62902000
H 21.20885000 29.66524000 12.14382000
O 19.23100000 29.94300000 9.91200000
C 18.00900000 22.76900000 12.26300000
C 18.96900000 23.01700000 13.38800000
H 14.44502000 27.62696000 9.37760000
H 13.45975000 28.08622000 7.10346000
C 14.95700000 25.34500000 11.32100000
C 15.08100000 28.32400000 9.93200000
H 15.95001000 28.56582000 9.32030000
C 15.50400000 27.75500000 11.24200000
H 16.88722000 26.14018000 11.70822000
C 16.04900000 26.36500000 11.04000000
H 17.55723000 28.53015000 11.46210000
H 19.29572000 25.06011000 12.82982000
H 17.28064000 23.57674000 12.16099000
H 18.54865000 22.69859000 11.31551000
H 16.43324000 26.21744000 10.02426000
H 8.51198000 29.66535000 -1.13808000
H 10.03145000 31.18901000 -2.16106000
C 11.62900000 30.56700000 5.55400000
H 11.56113000 28.40625000 5.58493000
C 19.84300000 24.14400000 13.08000000
C 20.38100000 29.59600000 9.66400000
H 20.97659000 30.02705000 8.84263000
H 21.46068000 28.07886000 12.44766000
N 20.89300000 28.72600000 11.90300000
H 20.48263000 23.92301000 12.21665000
C 16.33400000 8.32800000 2.25700000
H 16.61765000 8.63660000 3.27693000
C 17.44300000 7.81200000 1.37100000
H 12.59584000 16.82974000 5.13084000
C 14.71400000 14.79900000 8.01400000
N 15.54200000 14.23900000 6.94100000
C 14.76200000 16.31400000 8.11400000
O 13.82200000 13.22200000 5.88400000
C 15.01800000 13.50700000 5.96100000
H 14.55660000 11.59041000 4.66939000
H 16.51090000 14.52912000 6.91913000
C 18.17700000 8.98800000 0.70100000
H 18.74911000 8.62630000 -0.16343000
C 9.67700000 17.59400000 -1.29900000
H 13.84845000 29.80548000 7.06301000
C 13.03100000 29.08400000 6.97800000
C 12.32400000 29.19200000 5.64200000
N 13.30100000 28.96700000 4.56900000
O 11.83200000 28.01500000 3.17100000
H 8.29967000 19.84622000 1.15710000
H 9.84568000 18.43850000 2.47354000
H 8.22503000 20.84042000 -1.34510000
O 9.95200000 18.95100000 -0.92400000
C 7.99000000 22.20700000 -2.98300000
H 9.04476000 24.09796000 -3.20881000
C 8.37500000 23.61600000 -2.48400000
H 12.11455000 29.40265000 -0.60709000
C 9.25500000 21.63600000 -3.58100000
O 9.97300000 20.91100000 -2.92900000
H 9.50581000 21.96688000 -4.60305000
C 10.91000000 18.22500000 2.56700000
C 11.55300000 18.87400000 3.68200000
H 11.37486000 19.95550000 3.63155000
H 12.64045000 18.75113000 3.60691000
C 9.68800000 17.44900000 -2.82500000
H 9.59825000 16.41203000 -3.15917000
C 9.10100000 23.48500000 -1.16300000
H 8.42177000 23.15771000 -0.38024000
H 9.49327000 24.45934000 -0.85261000
H 10.84544000 26.52791000 -0.56774000
H 10.48637000 16.98198000 -0.88445000
H 11.36060000 18.56557000 1.62712000
H 10.63191000 17.83534000 -3.22483000
O 14.65200000 14.51400000 -5.51800000
H 10.93904000 28.85322000 -1.80800000
C 12.00600000 28.87700000 -1.56200000
H 11.24336000 26.72159000 -2.92427000
H 12.51885000 29.47360000 -2.32280000
H 12.79431000 28.18746000 -4.26986000
H 11.56665000 26.38965000 -5.23560000
N 12.56000000 26.25700000 -5.05400000
H 13.04658000 26.44102000 -5.92993000
H 14.10510000 29.59538000 4.56824000
O 14.41200000 30.93900000 1.61500000
H 19.30830000 27.24478000 10.38872000
C 20.38200000 27.13500000 10.17400000
H 20.73985000 26.38829000 10.89892000
C 21.04700000 28.47300000 10.47600000
H 22.11256000 28.46793000 10.22817000
H 16.30412000 29.25645000 7.33000000
O 15.84300000 30.67800000 5.23700000
H 18.81994000 30.13731000 7.57766000
N 18.62600000 30.44400000 6.62700000
C 15.30200000 30.38200000 2.28900000
H 16.22022000 32.08689000 3.14962000
H 16.73775000 31.98969000 0.71920000
H 18.38829000 33.08532000 2.37614000
C 16.54800000 31.14800000 2.68400000
H 19.49867000 30.70061000 6.17070000
H 14.25830000 12.59479000 -4.93482000
H 17.46631000 9.73540000 0.32634000
H 13.89983000 14.08508000 3.53542000
H 15.80622000 11.39967000 3.64257000
C 14.74500000 13.76100000 2.91800000
C 16.00300000 12.98600000 4.95500000
N 15.58200000 11.63600000 4.60400000
H 14.53744000 12.72530000 2.62985000
H 17.00081000 12.93400000 5.40551000
H 18.59835000 10.14381000 2.46231000
H 19.78784000 8.88569000 2.16055000
C 19.18300000 9.65900000 1.67000000
C 20.09500000 10.64000000 1.01100000
H 20.84567000 10.13228000 0.39450000
H 21.50008000 10.90753000 2.61612000
H 15.84226000 12.70296000 -2.57407000
H 18.22122000 11.49420000 -2.47018000
H 18.94385000 12.45056000 -3.76461000
H 16.65661000 12.15717000 -4.79556000
H 15.40611000 14.16408000 0.92979000
C 14.74200000 14.56100000 1.69800000
H 15.00402000 15.60371000 1.88821000
H 12.81462000 15.27472000 -3.11474000
H 12.55238000 15.48041000 -1.38686000
H 13.74042000 14.56819000 1.25157000
C 14.97200000 13.42300000 -5.07300000
C 16.94500000 30.29200000 4.88600000
C 13.01700000 27.15100000 -4.00100000
C 12.95800000 28.45600000 3.39400000
H 15.91898000 14.41269000 -2.87442000
H 14.09778000 14.88811000 -1.95020000
C 16.45000000 13.47600000 -3.06700000
C 16.39000000 13.19600000 -4.57500000
N 17.29500000 14.08600000 -5.30300000
H 17.14326000 14.02530000 -6.30679000
C 13.78100000 17.00500000 -2.24500000
C 13.29700000 15.59200000 -2.18400000
H 13.89327000 17.32239000 -0.11726000
H 13.27057000 17.07999000 -5.25919000
H 10.21715000 19.45607000 -1.72530000
H 12.87844000 17.63108000 -2.26453000
H 9.94225000 22.79655000 -1.19833000
C 12.33000000 26.72100000 -2.74100000
C 17.04700000 28.64200000 6.81100000
H 17.72309000 28.19564000 7.55133000
C 17.85300000 29.51600000 5.83700000
H 15.85809000 26.84688000 7.84402000
C 20.53200000 26.57300000 8.78600000
O 16.23600000 27.45800000 4.90500000
H 20.34957000 27.34365000 8.02831000
H 19.54256000 24.75320000 9.43708000
O 15.76200000 26.69600000 6.88200000
C 16.31600000 27.51300000 6.14600000
H 18.47806000 25.90824000 8.61845000
C 19.49000000 25.49000000 8.62700000
H 19.62899000 24.94535000 7.69023000
H 18.27123000 13.89835000 -5.10901000
O 13.16900000 18.86100000 -4.26300000
H 22.00061000 19.25746000 10.84144000
H 23.28624000 20.29912000 10.74514000
N 22.37600000 20.07400000 10.37000000
C 11.91700000 26.65800000 -0.37900000
C 12.59200000 27.47200000 -1.46900000
H 12.01179000 27.15379000 0.58994000
C 14.04300000 28.33100000 2.34900000
N 15.21300000 29.11100000 2.70200000
H 13.65177000 28.65305000 1.38063000
H 13.66391000 27.53795000 -1.25354000
H 22.17211000 25.26820000 9.36399000
H 22.68787000 26.83233000 8.70706000
H 24.35722000 21.66852000 9.50483000
C 21.93900000 26.03900000 8.62100000
H 23.02198000 22.67986000 8.93405000
H 24.21568000 24.44151000 8.07633000
H 25.75947000 23.85429000 8.64470000
O 26.94700000 26.29100000 7.77500000
H 17.08593000 12.56530000 2.29288000
H 19.51254000 11.28164000 0.33815000
C 16.04000000 13.91500000 3.69900000
H 16.16384000 14.95450000 4.02642000
C 22.36700000 19.87100000 9.06400000
N 21.77600000 18.78900000 8.58900000
H 17.06817000 12.75321000 -0.47078000
C 18.67800000 12.46300000 -2.70500000
C 17.22900000 13.53400000 2.78200000
H 18.15410000 13.48539000 3.36634000
H 20.01756000 11.84788000 2.79992000
C 20.75100000 11.49100000 2.06900000
H 12.09798000 21.63098000 -3.57823000
H 11.43354000 21.40297000 0.44623000
H 12.47585000 20.17190000 -0.26381000
H 13.29357000 20.78209000 -4.22212000
H 15.88501000 28.71073000 3.34981000
H 14.33497000 27.28749000 2.29663000
H 12.57746000 25.66180000 -2.56391000
C 12.43800000 21.21700000 0.06000000
H 11.89189000 22.12439000 -1.75036000
H 12.36937000 25.66535000 -0.27905000
H 13.75553000 23.51901000 -3.20026000
C 12.75400000 22.15100000 -1.08800000
N 12.98300000 21.75500000 -4.06600000
H 13.14890000 21.34305000 0.88190000
H 14.98291000 16.21197000 -3.90465000
C 13.61800000 17.72600000 -4.43600000
H 12.79692000 23.17851000 -0.70507000
H 14.10249000 20.73954000 -1.93768000
C 14.51800000 17.45500000 -1.00700000
C 14.62800000 17.16200000 -3.51400000
H 17.18972000 30.10244000 0.02665000
C 14.51800000 27.00500000 -3.82200000
O 15.00800000 25.91500000 -3.58800000
H 15.11505000 27.92787000 -3.90576000
H 16.54688000 26.86662000 -1.95980000
H 16.77271000 27.62159000 0.46026000
N 17.36400000 30.43900000 3.64500000
C 17.32800000 31.41900000 1.44700000
O 17.69300000 30.17700000 0.86300000
C 18.60100000 32.19700000 1.77300000
H 19.05637000 32.53753000 0.83494000
H 18.04294000 25.66875000 5.38614000
H 22.05932000 25.58810000 7.62948000
H 19.81647000 25.51440000 5.53568000
H 18.36268000 30.60564000 3.61999000
H 18.52374000 28.86945000 5.25990000
N 19.10600000 26.19900000 3.68800000
H 19.30154000 29.25042000 2.76486000
H 18.87743000 28.37730000 0.92755000
N 19.16300000 27.45500000 1.25700000
H 19.37637000 31.60551000 2.25979000
H 20.34684000 29.79059000 0.53396000
O 20.18800000 29.40700000 3.14600000
C 21.27900000 29.49900000 1.02400000
H 21.78434000 30.43751000 1.27976000
C 17.78700000 13.59500000 -2.33000000
H 19.62526000 12.51244000 -2.15461000
H 17.00905000 14.52478000 -0.56894000
C 17.59100000 13.64000000 -0.84500000
H 18.54945000 13.70906000 -0.31876000
H 17.38876000 14.28834000 2.00796000
N 21.41300000 12.70500000 1.50900000
H 21.90316000 13.20508000 2.25247000
H 22.14264000 12.41828000 0.85324000
H 17.12081000 18.52289000 -6.22435000
H 18.38254000 19.46460000 -7.02333000
C 23.72800000 21.89600000 8.63700000
N 22.95200000 20.73000000 8.23000000
H 21.86000000 18.84250000 7.56515000
N 15.75000000 18.10200000 -3.44000000
H 14.80418000 18.50831000 -1.06501000
H 18.27904000 14.52635000 -2.63295000
H 15.41036000 16.83629000 -0.88960000
O 17.34200000 16.58600000 -3.90400000
H 18.27448000 26.41431000 3.14315000
C 15.75900000 25.33600000 1.49300000
H 15.36968000 25.75220000 -0.53389000
O 16.39900000 25.78000000 2.45300000
H 15.92988000 25.40889000 3.25293000
O 14.73100000 24.67500000 1.64500000
C 17.01900000 17.74300000 -3.68200000
H 15.52441000 19.10053000 -3.45667000
C 14.04100000 21.83300000 -1.83700000
C 13.97900000 22.44900000 -3.23300000
H 15.26159000 22.03694000 -0.05413000
C 18.95700000 25.37200000 4.87600000
O 18.66000000 23.05400000 5.41700000
H 21.48591000 17.75999000 5.55923000
O 21.83600000 18.64700000 5.77800000
C 18.84500000 23.90300000 4.52000000
H 18.33851000 21.58548000 3.54570000
O 15.77900000 21.11100000 -4.07200000
C 17.84400000 19.33000000 -6.07800000
H 19.38884000 18.15558000 -5.22657000
C 15.34500000 22.25500000 -3.87000000
H 15.91537000 23.16252000 -4.12789000
H 17.30210000 20.26495000 -5.91051000
H 22.83605000 20.59735000 7.22793000
H 25.50549000 21.74015000 7.38821000
C 24.64600000 22.40900000 7.50500000
C 25.08700000 23.84900000 7.77600000
C 26.02900000 26.02500000 6.99600000
H 25.32604000 26.78455000 6.61835000
C 16.25800000 25.57200000 0.08400000
C 17.22700000 26.75100000 -0.02600000
H 16.69284000 22.42228000 1.93173000
N 17.40700000 27.05400000 -1.43700000
H 24.08453000 22.39372000 6.56464000
C 25.75700000 24.56600000 6.59300000
H 25.07193000 24.60418000 5.73940000
H 26.74241000 23.00417000 5.69145000
N 26.99200000 23.87700000 6.16900000
H 27.47587000 24.42658000 5.45958000
H 19.63353000 15.31708000 1.56190000
H 20.16263000 20.36859000 3.84586000
O 22.71400000 20.48200000 5.02900000
C 22.27200000 19.33700000 4.84400000
H 19.05260000 16.57447000 -0.08097000
H 20.17518000 16.19835000 -1.35972000
H 19.84203000 17.78626000 -3.01180000
C 18.81000000 19.05100000 -4.96700000
O 20.53100000 15.68200000 1.67200000
O 22.23300000 15.97000000 0.26500000
C 15.32300000 22.26400000 -1.12200000
H 16.20912000 21.74844000 -1.50395000
C 18.55500000 26.44600000 0.65300000
H 15.46548000 23.33781000 -1.23542000
C 18.11300000 18.84300000 -3.60300000
H 16.74762000 24.65354000 -0.24961000
H 17.67957000 19.77687000 -3.23785000
O 18.38300000 19.52300000 -0.84600000
H 17.62744000 21.09431000 1.19853000
N 19.15200000 18.42800000 -2.64300000
H 18.05972000 26.36794000 -1.83896000
O 19.74000000 20.12300000 -4.83100000
C 17.68200000 22.11700000 1.57800000
H 19.10440000 24.29100000 2.52528000
C 18.72100000 22.21100000 2.73800000
O 19.00300000 25.30900000 0.69200000
N 18.81900000 23.60000000 3.21700000
C 20.44100000 27.29000000 1.92000000
C 20.31900000 26.39300000 3.16800000
H 21.10709000 26.76528000 1.22172000
C 21.06300000 28.67800000 2.28200000
O 21.31600000 25.86700000 3.63700000
H 22.01171000 28.53856000 2.81093000
H 21.90489000 28.96521000 0.30213000
H 19.68193000 19.15520000 1.20930000
N 20.52400000 18.86800000 0.71900000
C 20.35500000 18.22700000 -0.58400000
N 20.53600000 20.55900000 2.91800000
C 20.08400000 16.74500000 -0.41300000
C 21.02300000 16.08800000 0.58600000
H 21.42317000 18.02223000 3.42130000
H 23.13150000 18.37861000 3.17515000
H 20.10979000 20.31976000 -5.70995000
H 24.31852000 20.87352000 4.59763000
N 25.25500000 21.19000000 4.36800000
C 22.16900000 18.82700000 3.44700000
H 25.93157000 20.45358000 4.20876000
C 19.21200000 18.80700000 -1.37100000
H 17.96724000 22.76806000 0.74769000
H 18.30562000 21.93852000 -2.78235000
C 20.08900000 21.66100000 2.29200000
H 19.70743000 21.73991000 -1.09181000
C 21.77900000 19.91200000 2.49600000
H 22.54259000 20.70126000 2.48852000
O 20.74900000 22.24300000 1.40300000
H 19.69599000 21.99240000 -3.59903000
N 19.12100000 22.53000000 -2.93600000
H 23.48554000 22.88203000 3.84469000
C 25.35700000 22.18500000 3.49500000
N 24.36200000 23.06800000 3.37100000
H 23.98567000 25.09251000 3.19954000
H 26.42287000 23.07697000 2.14334000
N 26.46700000 22.30300000 2.79500000
H 19.49231000 23.50348000 -1.12678000
C 24.42900000 24.30600000 2.57600000
H 25.45393000 24.65183000 2.40717000
C 21.69300000 19.37400000 1.10700000
H 21.27233000 18.36105000 -1.17013000
C 19.85700000 22.64200000 -1.69000000
H 21.69074000 22.63165000 0.03469000
H 22.58482000 24.10546000 1.50517000
C 23.64600000 24.25600000 1.28300000
H 23.73139000 25.22355000 0.77453000
O 22.64200000 19.50200000 0.36100000
O 21.75000000 22.95800000 -3.05600000
H 24.01745000 22.16923000 0.87606000
C 24.17100000 23.14700000 0.40300000
C 21.32400000 22.80000000 -1.94000000
C 23.53300000 23.12600000 -0.98500000
N 22.11700000 22.75500000 -0.88700000
H 25.25513000 23.26884000 0.28519000
H 23.52731000 24.15515000 -1.37397000
H 24.17716000 21.29027000 -2.12549000
C 24.41300000 22.35600000 -1.97300000
O 25.39800000 22.90300000 -2.46100000
