411

H 12.90603000 28.83195000 16.37210000
C 16.23300000 20.17000000 15.76600000
H 16.20653000 19.68497000 16.74900000
H 16.24389000 18.13728000 15.05746000
H 14.28244000 20.62750000 16.24202000
H 26.76308000 22.97769000 5.74793000
H 27.47352000 24.42251000 5.45583000
N 26.99200000 23.87700000 6.16900000
O 26.94700000 26.29100000 7.77500000
C 16.46700000 19.13900000 14.66900000
H 17.49189000 19.12730000 14.28331000
O 18.30600000 21.08500000 16.56700000
C 17.35200000 21.20500000 15.79500000
H 16.28238000 22.38535000 14.58258000
H 17.45824000 21.83649000 12.39903000
N 17.22000000 22.21900000 14.94800000
C 18.23600000 23.24300000 14.76200000
H 19.58188000 22.11221000 13.50005000
H 18.95834000 23.21731000 15.58561000
H 20.51615000 24.37787000 13.91267000
C 13.03600000 28.65500000 15.29200000
C 11.89300000 28.98300000 14.41900000
H 9.71328000 27.32608000 14.83934000
H 11.06235000 29.37160000 15.01610000
H 11.16647000 26.58531000 15.53083000
H 9.98429000 28.67717000 12.56006000
O 14.06700000 28.22100000 14.82100000
C 17.54900000 24.62600000 14.80100000
H 18.18731000 25.50086000 15.00564000
O 16.32800000 24.73500000 14.56900000
N 12.39000000 30.00500000 13.53700000
O 6.56100000 31.00800000 9.09900000
O 6.95100000 33.11800000 9.47300000
H 13.36677000 29.82235000 13.25673000
H 11.88060000 30.07996000 12.66438000
H 15.89033000 28.62218000 13.87064000
H 16.64390000 27.27302000 13.48887000
N 16.72900000 28.28300000 13.37000000
O 15.17800000 30.60000000 12.38400000
H 8.63731000 30.49309000 10.29361000
H 11.12730000 32.27346000 11.15889000
C 8.54900000 31.58500000 10.21400000
H 8.52926000 31.95681000 11.24621000
H 9.66733000 33.26278000 9.42138000
C 7.25400000 31.91600000 9.57900000
H 7.50432000 33.78170000 9.92296000
C 10.80500000 27.96300000 12.42300000
C 11.52800000 27.68300000 13.69000000
C 10.65600000 26.82500000 14.59200000
H 15.94229000 20.19554000 12.91045000
N 14.91500000 20.72500000 15.44900000
H 12.41879000 27.09337000 13.43518000
H 14.58987000 25.42856000 12.34923000
H 10.35489000 27.04812000 12.02447000
H 10.40913000 25.87368000 14.10712000
C 14.33100000 20.11400000 14.23800000
C 15.47700000 19.48900000 13.60700000
H 15.20154000 18.61282000 13.00995000
H 13.58616000 19.36867000 14.53775000
H 24.34938000 21.66365000 9.51000000
H 22.10807000 21.00689000 10.64613000
N 22.37600000 20.07400000 10.37000000
H 21.80290000 19.37792000 10.83427000
H 25.50862000 21.74186000 7.39795000
N 22.95200000 20.73000000 8.23000000
C 22.36700000 19.87100000 9.06400000
N 21.77600000 18.78900000 8.58900000
H 5.80358000 28.31079000 11.25082000
H 7.35044000 27.16375000 12.75071000
H 4.29215000 27.87016000 12.04518000
H 4.34404000 28.10449000 10.29197000
C 4.89800000 27.70300000 11.14800000
H 5.42015000 25.78411000 13.06946000
N 3.16700000 25.25800000 11.84900000
H 2.58962000 26.07539000 12.02864000
C 7.36900000 26.17000000 12.29100000
H 7.87279000 26.26347000 11.33202000
C 5.95900000 25.62800000 12.12700000
H 7.96123000 25.51807000 12.94069000
H 13.84022000 20.86499000 13.61496000
H 15.11802000 14.40333000 8.95235000
N 15.54200000 14.23900000 6.94100000
H 16.51136000 14.52791000 6.92040000
H 17.00054000 12.93423000 5.40620000
O 13.82200000 13.22200000 5.88400000
C 24.64600000 22.40900000 7.50500000
C 23.72800000 21.89600000 8.63700000
C 25.08700000 23.84900000 7.77600000
H 24.09876000 22.38226000 6.55501000
H 25.75901000 23.85473000 8.64508000
C 25.75700000 24.56600000 6.59300000
H 25.07338000 24.59926000 5.73671000
C 26.02900000 26.02500000 6.99600000
H 25.32606000 26.78482000 6.61885000
H 14.61817000 27.73405000 11.89249000
H 15.33645000 24.32890000 11.18756000
H 14.10912000 25.47481000 10.64103000
H 24.21530000 24.44140000 8.07548000
H 21.44179000 28.06744000 12.45288000
H 21.21832000 29.65974000 12.15057000
N 20.89300000 28.72600000 11.90300000
C 18.00900000 22.76900000 12.26300000
C 18.96900000 23.01700000 13.38800000
C 14.95700000 25.34500000 11.32100000
H 16.88799000 26.14041000 11.70754000
H 19.29584000 25.06015000 12.82975000
H 17.28341000 23.57890000 12.15781000
C 19.84300000 24.14400000 13.08000000
H 20.48262000 23.92289000 12.21665000
H 18.54944000 22.69428000 11.31630000
C 21.04700000 28.47300000 10.47600000
H 22.11260000 28.46726000 10.22844000
C 20.38200000 27.13500000 10.17400000
H 20.73978000 26.38815000 10.89881000
H 23.02130000 22.68034000 8.93135000
H 22.17239000 25.26883000 9.36457000
H 22.68780000 26.83248000 8.70636000
H 11.46797000 28.34860000 11.64135000
C 10.98800000 31.81900000 10.16300000
C 16.58800000 28.65100000 11.95500000
C 16.19000000 30.13200000 11.81100000
H 16.82168000 30.75398000 11.15569000
H 19.30834000 27.24481000 10.38882000
H 17.55703000 28.52898000 11.46203000
C 15.50400000 27.75500000 11.24200000
O 19.23100000 29.94300000 9.91200000
C 20.38100000 29.59600000 9.66400000
H 20.97991000 30.03163000 8.84764000
C 16.04900000 26.36500000 11.04000000
H 14.49787000 29.24340000 10.04990000
N 9.69800000 31.68500000 8.06200000
O 11.81800000 31.07200000 9.67900000
C 9.71800000 32.16800000 9.44400000
H 8.94050000 32.11612000 7.53014000
C 15.08100000 28.32400000 9.93200000
H 16.43216000 26.21786000 10.02374000
H 15.95022000 28.56050000 9.31859000
H 18.97784000 30.05874000 7.49833000
H 14.44068000 27.62868000 9.38047000
H 10.56989000 31.98030000 7.60965000
C 21.93900000 26.03900000 8.62100000
H 6.08986000 24.55096000 12.01505000
C 3.97800000 25.46400000 10.65500000
C 5.23400000 26.25900000 10.95300000
H 3.36221000 25.95609000 9.89171000
H 2.53966000 24.46669000 11.70820000
H 11.18699000 23.50967000 12.22264000
H 12.87397000 23.41198000 11.74696000
H 12.08844000 21.99540000 12.43778000
C 11.93600000 22.85000000 11.77300000
H 11.27906000 19.84003000 11.59535000
C 12.64700000 18.56500000 9.67200000
C 14.71400000 14.79900000 8.01400000
C 13.48400000 18.31900000 8.45900000
H 12.75243000 16.33792000 8.39768000
O 12.88000000 17.97600000 10.72100000
N 13.58300000 16.89600000 8.23900000
C 14.76200000 16.31400000 8.11400000
H 13.68187000 14.44674000 7.92156000
H 14.45977000 18.79145000 8.59083000
O 15.80300000 16.95200000 7.88800000
O 20.53100000 15.68200000 1.67200000
O 22.23300000 15.97000000 0.26500000
H 22.89083000 20.55893000 7.22719000
H 21.87053000 18.83558000 7.56520000
O 21.83600000 18.64700000 5.77800000
H 21.49640000 17.75746000 5.55575000
H 21.42227000 18.02297000 3.42147000
C 22.16900000 18.82700000 3.44700000
O 22.71400000 20.48200000 5.02900000
C 22.27200000 19.33700000 4.84400000
H 23.13078000 18.37722000 3.17500000
H 12.43516000 21.99954000 9.89523000
N 11.85000000 19.61100000 9.58400000
H 9.57107000 21.67730000 12.31487000
H 9.18190000 18.64352000 11.29874000
C 10.85800000 19.97400000 10.59400000
C 4.42000000 24.14000000 10.11400000
H 5.89479000 26.20251000 10.07574000
N 4.56700000 24.04200000 8.79500000
H 4.62191000 24.87630000 8.22309000
O 4.66700000 23.24800000 10.88700000
H 4.74071000 21.94689000 8.84425000
H 4.16033000 22.65226000 7.33439000
H 9.04308000 22.92184000 11.16764000
H 8.37463000 21.30374000 11.08288000
C 9.29900000 21.86200000 11.27000000
C 11.55600000 22.42100000 10.39400000
C 10.36500000 21.45300000 10.31600000
H 11.32517000 23.32122000 9.82232000
N 15.58200000 11.63600000 4.60400000
H 14.55689000 11.60533000 4.58758000
H 15.90531000 11.35768000 3.68343000
C 15.01800000 13.50700000 5.96100000
H 16.16374000 14.95459000 4.02608000
H 13.89643000 14.07811000 3.53393000
C 16.04000000 13.91500000 3.69900000
C 16.00300000 12.98600000 4.95500000
C 17.22900000 13.53400000 2.78200000
H 17.38891000 14.28096000 1.99963000
C 14.74500000 13.76100000 2.91800000
H 18.15543000 13.48771000 3.36499000
H 17.08588000 12.56278000 2.29781000
H 14.54760000 12.72364000 2.62741000
H 22.05913000 25.58725000 7.62992000
N 18.62600000 30.44400000 6.62700000
H 19.39089000 30.86513000 6.10571000
H 17.72311000 28.19559000 7.55120000
H 15.82920000 26.85734000 7.84461000
C 20.53200000 26.57300000 8.78600000
H 20.34938000 27.34381000 8.02855000
H 19.54694000 24.74935000 9.43322000
H 18.47766000 25.90737000 8.62484000
C 19.49000000 25.49000000 8.62700000
H 19.62512000 24.95069000 7.68641000
H 12.33301000 29.25450000 7.80216000
H 10.52767000 30.56735000 5.53290000
O 12.30300000 31.61800000 5.50400000
H 16.30410000 29.25621000 7.33011000
H 13.83321000 29.82384000 7.07257000
H 13.47521000 28.09263000 7.09854000
C 17.04700000 28.64200000 6.81100000
C 17.85300000 29.51600000 5.83700000
H 18.51389000 28.88539000 5.23511000
O 15.76200000 26.69600000 6.88200000
C 13.03100000 29.08400000 6.97800000
O 15.84300000 30.67800000 5.23700000
C 16.94500000 30.29200000 4.88600000
C 11.62900000 30.56700000 5.55400000
H 17.38645000 30.56955000 3.91430000
H 11.53961000 28.42962000 5.57763000
C 16.31600000 27.51300000 6.14600000
H 14.09641000 29.61206000 4.53490000
N 13.30100000 28.96700000 4.56900000
C 12.32400000 29.19200000 5.64200000
O 11.83200000 28.01500000 3.17100000
H 19.84424000 25.49810000 5.50172000
H 22.54384000 20.70109000 2.49008000
C 21.77900000 19.91200000 2.49600000
H 19.57645000 15.51045000 1.63729000
O 22.64200000 19.50200000 0.36100000
C 21.69300000 19.37400000 1.10700000
C 20.35500000 18.22700000 -0.58400000
C 21.02300000 16.08800000 0.58600000
C 20.08400000 16.74500000 -0.41300000
H 21.26177000 18.36936000 -1.18225000
H 20.17484000 16.21178000 -1.36753000
H 19.05080000 16.57380000 -0.08767000
C 4.88600000 22.77700000 8.14500000
O 6.72300000 23.68900000 6.90000000
H 10.01994000 21.53691000 9.30012000
H 11.64366000 19.94155000 8.64646000
C 9.70700000 18.98800000 10.39300000
O 9.34100000 18.67000000 9.25100000
H 13.01018000 18.73571000 7.56486000
H 19.68732000 19.21158000 1.18407000
N 20.52400000 18.86800000 0.71900000
H 20.23914000 20.45554000 3.88534000
N 20.53600000 20.55900000 2.91800000
C 20.08900000 21.66100000 2.29200000
O 20.74900000 22.24300000 1.40300000
H 18.33650000 21.58604000 3.54438000
O 18.66000000 23.05400000 5.41700000
H 8.91694000 21.00992000 8.03725000
C 8.31300000 21.47100000 7.27600000
H 6.56794000 20.88252000 8.30556000
N 7.01500000 21.68800000 7.88400000
C 6.26500000 22.72000000 7.52100000
H 8.77236000 22.37309000 6.88314000
C 14.74200000 14.56100000 1.69800000
H 15.44628000 14.20509000 0.94008000
H 13.75261000 14.52871000 1.22631000
H 14.95341000 15.61338000 1.90141000
C 18.95700000 25.37200000 4.87600000
H 19.15993000 27.17408000 3.96164000
O 16.23600000 27.45800000 4.90500000
H 18.07108000 25.65347000 5.44390000
C 18.84500000 23.90300000 4.52000000
N 19.10600000 26.19900000 3.68800000
C 12.95800000 28.45600000 3.39400000
N 15.21300000 29.11100000 2.70200000
N 18.81900000 23.60000000 3.21700000
H 15.67218000 28.57972000 3.45314000
H 19.18495000 24.29171000 2.55695000
H 15.85932000 29.10239000 1.91820000
O 19.00300000 25.30900000 0.69200000
C 18.55500000 26.44600000 0.65300000
H 19.13310000 27.31857000 0.99995000
H 13.63761000 28.70301000 1.40257000
H 18.22252000 26.10759000 3.16992000
H 15.93506000 25.40344000 3.25455000
O 16.39900000 25.78000000 2.45300000
C 14.04300000 28.33100000 2.34900000
H 16.80533000 27.62651000 0.47743000
H 14.28604000 27.27868000 2.23608000
C 18.72100000 22.21100000 2.73800000
C 17.22700000 26.75100000 -0.02600000
H 16.50987000 27.15692000 -1.90996000
N 17.40700000 27.05400000 -1.43700000
H 17.98152000 22.74959000 0.73717000
H 17.61312000 21.08969000 1.21357000
C 19.21200000 18.80700000 -1.37100000
O 18.38300000 19.52300000 -0.84600000
H 19.15596000 18.52423000 -2.43587000
H 15.41859000 16.84695000 -0.89763000
H 14.12699000 14.88170000 -2.09493000
H 12.64900000 15.43932000 -1.31337000
C 13.29700000 15.59200000 -2.18400000
H 14.99179000 16.20929000 -3.91185000
H 12.71416000 15.32025000 -3.07101000
H 17.87937000 26.26979000 -1.89581000
C 8.22100000 20.37900000 6.23200000
H 9.14846000 19.82827000 6.00527000
C 14.62800000 17.16200000 -3.51400000
H 16.12475000 18.27503000 -4.37527000
H 13.25845000 17.07758000 -5.25161000
N 15.75000000 18.10200000 -3.44000000
C 13.78100000 17.00500000 -2.24500000
C 17.68200000 22.11700000 1.57800000
H 16.69673000 22.44211000 1.92457000
O 7.17700000 20.19700000 5.58300000
C 14.51800000 17.45500000 -1.00700000
H 13.89955000 17.30400000 -0.11563000
H 14.78628000 18.51340000 -1.04972000
C 15.75900000 25.33600000 1.49300000
H 16.74720000 24.65307000 -0.24891000
H 15.37197000 25.75607000 -0.53662000
C 16.25800000 25.57200000 0.08400000
O 14.73100000 24.67500000 1.64500000
H 15.26715000 22.02277000 -0.05691000
H 16.21315000 21.76229000 -1.51342000
H 15.45486000 23.34035000 -1.22163000
H 14.10181000 20.73974000 -1.93726000
C 15.32300000 22.26400000 -1.12200000
H 15.39194000 19.03581000 -3.18841000
H 12.87674000 17.63074000 -2.26093000
C 13.61800000 17.72600000 -4.43600000
C 15.34500000 22.25500000 -3.87000000
O 13.16900000 18.86100000 -4.26300000
O 15.77900000 21.11100000 -4.07200000
H 15.91611000 23.16044000 -4.12951000
H 6.56387000 20.50653000 2.72431000
H 7.61156000 18.27674000 1.64890000
H 5.49265000 19.24466000 2.13445000
H 13.32054000 20.79272000 -4.24713000
C 14.04100000 21.83300000 -1.83700000
C 13.97900000 22.44900000 -3.23300000
H 12.45316000 20.17275000 -0.26926000
N 12.98300000 21.75500000 -4.06600000
H 13.16012000 21.32860000 0.87408000
H 13.75781000 23.52094000 -3.19990000
C 6.27400000 19.95400000 1.83100000
H 4.63918000 21.09784000 0.91693000
C 7.38700000 19.24300000 1.19000000
H 8.29629000 19.85432000 1.18871000
H 7.68257000 19.01749000 -0.88608000
H 4.97943000 19.51979000 -0.80764000
N 6.92200000 19.07400000 -0.21400000
C 12.43800000 21.21700000 0.06000000
C 12.75400000 22.15100000 -1.08800000
H 12.79958000 23.17804000 -0.70278000
H 11.44105000 21.41703000 0.45789000
H 11.89096000 22.12958000 -1.74961000
H 12.11811000 21.56969000 -3.55582000
O 9.97300000 20.91100000 -2.92900000
C 5.89600000 20.06600000 -0.55600000
C 5.69400000 20.87400000 0.72900000
H 8.22792000 20.95235000 -1.26511000
H 6.24315000 21.81796000 0.69324000
C 6.24400000 20.96900000 -1.72700000
C 9.25500000 21.63600000 -3.58100000
H 9.50580000 21.96639000 -4.60309000
O 5.34300000 21.29400000 -2.50900000
H 9.93043000 22.78188000 -1.19040000
H 8.41574000 23.17987000 -0.37652000
N 7.52000000 21.35500000 -1.86800000
C 9.10100000 23.48500000 -1.16300000
C 7.99000000 22.20700000 -2.98300000
C 8.37500000 23.61600000 -2.48400000
H 9.51099000 24.45631000 -0.86339000
H 9.04453000 24.09719000 -3.20938000
H 7.23472000 22.24336000 -3.77499000
H 6.40986000 24.10701000 -1.63513000
C 7.12200000 24.51300000 -2.36100000
H 6.61546000 24.60261000 -3.32733000
H 7.40536000 25.51791000 -2.03159000
N 5.92500000 28.68800000 1.71900000
H 6.51477000 28.84999000 2.52323000
H 5.57391000 27.72657000 1.73810000
N 6.47600000 28.02800000 -0.41100000
C 6.52300000 28.93800000 0.56100000
H 6.70077000 30.86727000 0.87477000
H 6.94236000 28.37268000 -1.24302000
N 7.14300000 30.10200000 0.37800000
H 7.09596000 30.61256000 -1.64795000
H 8.50875000 29.66431000 -1.14281000
C 7.82800000 30.47100000 -0.84400000
H 9.29189000 31.58976000 0.21766000
H 7.95255000 32.54593000 -0.38808000
C 8.62300000 31.71600000 -0.64400000
C 9.43500000 32.06100000 -1.86200000
H 8.76873000 32.26568000 -2.71125000
H 10.03291000 31.18771000 -2.15767000
C 10.38500000 33.25100000 -1.64200000
H 10.97801000 33.10474000 -0.73171000
H 9.17367000 34.57886000 -0.63334000
H 10.31125000 35.31188000 -1.55819000
C 11.34800000 33.30500000 -2.78000000
N 9.66100000 34.52800000 -1.52500000
H 12.37233000 32.93838000 -2.60849000
O 10.96400000 33.68200000 -3.90600000
