396

H 12.90669000 28.83405000 16.37184000
C 16.23300000 20.17000000 15.76600000
H 16.20654000 19.68496000 16.74900000
H 16.24389000 18.13728000 15.05746000
H 14.28269000 20.62769000 16.24230000
H 26.76332000 22.97827000 5.74664000
H 27.47469000 24.42330000 5.45722000
N 26.99200000 23.87700000 6.16900000
O 26.94700000 26.29100000 7.77500000
C 16.46700000 19.13900000 14.66900000
H 17.49189000 19.12729000 14.28331000
O 18.30600000 21.08500000 16.56700000
C 17.35200000 21.20500000 15.79500000
H 16.28176000 22.38657000 14.58490000
H 17.45814000 21.83657000 12.39909000
N 17.22000000 22.21900000 14.94800000
C 18.23600000 23.24300000 14.76200000
H 19.58188000 22.11221000 13.50005000
H 18.95833000 23.21732000 15.58562000
H 20.51616000 24.37786000 13.91267000
C 13.03600000 28.65500000 15.29200000
H 9.97153000 28.66088000 12.56634000
C 11.89300000 28.98300000 14.41900000
H 9.71394000 27.32662000 14.84075000
H 11.06399000 29.37179000 15.01839000
H 11.16714000 26.58398000 15.53012000
O 14.06700000 28.22100000 14.82100000
C 17.54900000 24.62600000 14.80100000
H 18.18727000 25.50087000 15.00583000
O 16.32800000 24.73500000 14.56900000
N 12.39000000 30.00500000 13.53700000
H 11.78909000 30.19602000 12.74397000
H 16.62802000 27.27498000 13.49350000
H 15.89890000 28.63778000 13.87483000
H 13.32516000 29.78560000 13.16928000
N 16.72900000 28.28300000 13.37000000
O 15.17800000 30.60000000 12.38400000
C 11.52800000 27.68300000 13.69000000
C 10.80500000 27.96300000 12.42300000
C 10.65600000 26.82500000 14.59200000
H 15.94229000 20.19554000 12.91045000
N 14.91500000 20.72500000 15.44900000
H 12.41905000 27.09384000 13.43498000
H 14.58970000 25.42867000 12.34916000
H 10.37245000 27.04465000 12.01381000
H 10.40783000 25.87442000 14.10635000
C 14.33100000 20.11400000 14.23800000
C 15.47700000 19.48900000 13.60700000
H 15.20154000 18.61282000 13.00995000
H 13.58617000 19.36868000 14.53776000
H 24.34940000 21.66363000 9.50998000
H 22.11028000 21.00723000 10.64697000
N 22.37600000 20.07400000 10.37000000
H 21.80315000 19.37820000 10.83494000
H 25.50862000 21.74187000 7.39792000
N 22.95200000 20.73000000 8.23000000
C 22.36700000 19.87100000 9.06400000
N 21.77600000 18.78900000 8.58900000
H 7.35044000 27.16343000 12.75137000
H 5.80344000 28.31048000 11.25252000
H 4.29086000 27.86967000 12.04444000
C 4.89800000 27.70300000 11.14800000
H 4.34493000 28.10458000 10.29147000
H 5.42014000 25.78406000 13.06946000
N 3.16700000 25.25800000 11.84900000
H 2.57770000 26.06770000 12.02427000
C 7.36900000 26.17000000 12.29100000
H 7.87276000 26.26389000 11.33205000
C 5.95900000 25.62800000 12.12700000
H 7.96131000 25.51774000 12.94030000
H 13.84022000 20.86499000 13.61496000
H 15.11795000 14.40329000 8.95236000
N 15.54200000 14.23900000 6.94100000
H 16.51198000 14.52594000 6.92161000
H 17.00054000 12.93422000 5.40619000
O 13.82200000 13.22200000 5.88400000
C 24.64600000 22.40900000 7.50500000
C 23.72800000 21.89600000 8.63700000
C 25.08700000 23.84900000 7.77600000
H 24.09875000 22.38228000 6.55502000
H 25.75901000 23.85474000 8.64508000
C 25.75700000 24.56600000 6.59300000
H 25.07341000 24.59931000 5.73670000
C 26.02900000 26.02500000 6.99600000
H 25.32615000 26.78486000 6.61878000
H 14.61824000 27.73390000 11.89255000
H 15.33652000 24.32890000 11.18777000
H 14.10923000 25.47466000 10.64087000
H 24.21530000 24.44140000 8.07548000
H 21.44529000 28.07052000 12.45312000
H 21.21415000 29.66141000 12.15020000
N 20.89300000 28.72600000 11.90300000
C 18.00900000 22.76900000 12.26300000
C 18.96900000 23.01700000 13.38800000
C 14.95700000 25.34500000 11.32100000
H 16.88768000 26.14068000 11.70809000
H 19.29584000 25.06015000 12.82978000
H 17.28349000 23.57897000 12.15774000
C 19.84300000 24.14400000 13.08000000
H 20.48261000 23.92290000 12.21664000
H 18.54946000 22.69416000 11.31632000
C 21.04700000 28.47300000 10.47600000
H 22.11259000 28.46737000 10.22839000
C 20.38200000 27.13500000 10.17400000
H 20.73981000 26.38819000 10.89884000
H 23.02131000 22.68034000 8.93137000
H 22.17239000 25.26882000 9.36457000
H 22.68780000 26.83248000 8.70637000
H 11.46417000 28.37313000 11.65061000
C 16.58800000 28.65100000 11.95500000
C 16.19000000 30.13200000 11.81100000
H 16.82449000 30.75522000 11.15953000
H 19.30834000 27.24481000 10.38882000
H 17.55694000 28.52869000 11.46192000
C 15.50400000 27.75500000 11.24200000
O 19.23100000 29.94300000 9.91200000
C 20.38100000 29.59600000 9.66400000
H 20.98084000 30.03305000 8.84908000
C 16.04900000 26.36500000 11.04000000
H 14.49647000 29.24245000 10.04990000
H 16.43264000 26.21775000 10.02398000
C 15.08100000 28.32400000 9.93200000
H 15.95037000 28.56190000 9.31927000
H 19.01501000 30.04458000 7.47538000
H 14.44277000 27.62774000 9.37917000
C 21.93900000 26.03900000 8.62100000
H 6.08987000 24.55096000 12.01502000
C 3.97800000 25.46400000 10.65500000
C 5.23400000 26.25900000 10.95300000
H 3.36202000 25.95582000 9.89171000
H 2.55199000 24.45525000 11.71742000
H 11.18699000 23.50968000 12.22264000
H 12.87398000 23.41197000 11.74696000
H 12.08843000 21.99540000 12.43778000
C 11.93600000 22.85000000 11.77300000
H 11.27906000 19.84004000 11.59535000
C 12.64700000 18.56500000 9.67200000
C 14.71400000 14.79900000 8.01400000
C 13.48400000 18.31900000 8.45900000
H 12.75303000 16.33748000 8.39946000
O 12.88000000 17.97600000 10.72100000
N 13.58300000 16.89600000 8.23900000
C 14.76200000 16.31400000 8.11400000
H 13.68186000 14.44678000 7.92149000
H 14.45977000 18.79145000 8.59084000
O 15.80300000 16.95200000 7.88800000
O 20.53100000 15.68200000 1.67200000
O 22.23300000 15.97000000 0.26500000
H 22.89266000 20.55778000 7.22730000
H 21.87084000 18.83543000 7.56524000
O 21.83600000 18.64700000 5.77800000
H 21.49812000 17.75674000 5.55592000
H 21.42226000 18.02299000 3.42150000
C 22.16900000 18.82700000 3.44700000
O 22.71400000 20.48200000 5.02900000
C 22.27200000 19.33700000 4.84400000
H 23.13077000 18.37720000 3.17500000
H 12.43515000 21.99951000 9.89523000
N 11.85000000 19.61100000 9.58400000
H 9.57107000 21.67731000 12.31487000
H 9.18216000 18.64318000 11.29878000
C 10.85800000 19.97400000 10.59400000
C 4.42000000 24.14000000 10.11400000
H 5.89477000 26.20239000 10.07574000
N 4.56700000 24.04200000 8.79500000
H 4.60645000 24.87376000 8.21926000
O 4.66700000 23.24800000 10.88700000
H 4.74111000 21.94700000 8.84449000
H 4.16013000 22.65184000 7.33463000
H 9.04307000 22.92184000 11.16764000
H 8.37464000 21.30373000 11.08288000
C 9.29900000 21.86200000 11.27000000
C 11.55600000 22.42100000 10.39400000
C 10.36500000 21.45300000 10.31600000
H 11.32519000 23.32122000 9.82231000
N 15.58200000 11.63600000 4.60400000
H 14.55695000 11.60515000 4.58694000
H 15.90617000 11.35713000 3.68389000
C 15.01800000 13.50700000 5.96100000
H 16.16374000 14.95459000 4.02608000
H 13.89642000 14.07809000 3.53392000
C 16.04000000 13.91500000 3.69900000
C 16.00300000 12.98600000 4.95500000
C 17.22900000 13.53400000 2.78200000
H 17.38892000 14.28097000 1.99964000
C 14.74500000 13.76100000 2.91800000
H 18.15543000 13.48769000 3.36499000
H 17.08586000 12.56279000 2.29780000
H 14.54765000 12.72363000 2.62741000
H 22.05913000 25.58726000 7.62992000
N 18.62600000 30.44400000 6.62700000
H 19.36613000 30.89488000 6.09422000
H 17.72343000 28.19600000 7.55115000
H 15.85013000 26.84463000 7.84500000
C 20.53200000 26.57300000 8.78600000
H 20.34938000 27.34381000 8.02855000
H 19.54695000 24.74934000 9.43321000
H 18.47767000 25.90737000 8.62485000
C 19.49000000 25.49000000 8.62700000
H 19.62511000 24.95070000 7.68640000
H 12.34130000 29.27980000 7.80524000
H 10.52750000 30.57398000 5.56626000
O 12.30300000 31.61800000 5.50400000
H 16.30428000 29.25619000 7.33029000
H 13.84803000 29.80899000 7.06125000
H 13.45821000 28.08611000 7.10653000
C 17.04700000 28.64200000 6.81100000
C 17.85300000 29.51600000 5.83700000
H 18.51396000 28.88611000 5.23441000
O 15.76200000 26.69600000 6.88200000
C 13.03100000 29.08400000 6.97800000
O 15.84300000 30.67800000 5.23700000
C 16.94500000 30.29200000 4.88600000
H 17.38652000 30.56980000 3.91436000
C 11.62900000 30.56700000 5.55400000
H 11.53912000 28.43014000 5.57706000
C 16.31600000 27.51300000 6.14600000
H 14.09617000 29.61308000 4.53086000
N 13.30100000 28.96700000 4.56900000
C 12.32400000 29.19200000 5.64200000
O 11.83200000 28.01500000 3.17100000
H 19.84436000 25.49797000 5.50159000
H 22.54384000 20.70108000 2.49009000
C 21.77900000 19.91200000 2.49600000
H 19.57670000 15.50905000 1.63675000
O 22.64200000 19.50200000 0.36100000
C 21.69300000 19.37400000 1.10700000
C 20.35500000 18.22700000 -0.58400000
C 21.02300000 16.08800000 0.58600000
C 20.08400000 16.74500000 -0.41300000
H 21.26177000 18.36936000 -1.18225000
H 20.17488000 16.21180000 -1.36754000
H 19.05080000 16.57379000 -0.08765000
C 4.88600000 22.77700000 8.14500000
O 6.72300000 23.68900000 6.90000000
H 10.01995000 21.53690000 9.30011000
H 11.64192000 19.93871000 8.64595000
C 9.70700000 18.98800000 10.39300000
O 9.34100000 18.67000000 9.25100000
H 13.01023000 18.73571000 7.56483000
H 19.68735000 19.21107000 1.18437000
N 20.52400000 18.86800000 0.71900000
H 20.24100000 20.45668000 3.88594000
N 20.53600000 20.55900000 2.91800000
C 20.08900000 21.66100000 2.29200000
O 20.74900000 22.24300000 1.40300000
H 18.33628000 21.58603000 3.54421000
O 18.66000000 23.05400000 5.41700000
H 8.91691000 21.00989000 8.03726000
C 8.31300000 21.47100000 7.27600000
H 6.56780000 20.88165000 8.30423000
N 7.01500000 21.68800000 7.88400000
C 6.26500000 22.72000000 7.52100000
H 8.77239000 22.37309000 6.88317000
C 14.74200000 14.56100000 1.69800000
H 15.44629000 14.20510000 0.94009000
H 13.75261000 14.52869000 1.22630000
H 14.95339000 15.61338000 1.90142000
C 18.95700000 25.37200000 4.87600000
O 16.23600000 27.45800000 4.90500000
H 19.16464000 27.17402000 3.96070000
H 18.07122000 25.65361000 5.44403000
C 18.84500000 23.90300000 4.52000000
N 19.10600000 26.19900000 3.68800000
C 12.95800000 28.45600000 3.39400000
N 15.21300000 29.11100000 2.70200000
N 18.81900000 23.60000000 3.21700000
H 15.67963000 28.57503000 3.44494000
H 19.18627000 24.29126000 2.55712000
H 15.85404000 29.11321000 1.91353000
O 19.00300000 25.30900000 0.69200000
C 18.55500000 26.44600000 0.65300000
H 19.13326000 27.31860000 0.99966000
H 13.63731000 28.70362000 1.40291000
H 18.22256000 26.10962000 3.16985000
H 15.93675000 25.40102000 3.25416000
O 16.39900000 25.78000000 2.45300000
C 14.04300000 28.33100000 2.34900000
H 16.80529000 27.62649000 0.47749000
H 14.28592000 27.27877000 2.23517000
C 18.72100000 22.21100000 2.73800000
C 17.22700000 26.75100000 -0.02600000
H 16.51034000 27.15596000 -1.91100000
N 17.40700000 27.05400000 -1.43700000
H 17.98152000 22.74959000 0.73717000
H 17.61312000 21.08969000 1.21357000
C 19.21200000 18.80700000 -1.37100000
O 18.38300000 19.52300000 -0.84600000
H 19.15600000 18.52424000 -2.43588000
H 15.41850000 16.84685000 -0.89753000
H 14.12699000 14.88170000 -2.09493000
H 12.64900000 15.43932000 -1.31337000
C 13.29700000 15.59200000 -2.18400000
H 14.99179000 16.20927000 -3.91180000
H 12.71415000 15.32025000 -3.07101000
H 17.88121000 26.27086000 -1.89583000
C 8.22100000 20.37900000 6.23200000
H 9.14836000 19.82797000 6.00546000
C 14.62800000 17.16200000 -3.51400000
H 16.12618000 18.27319000 -4.37504000
H 13.25853000 17.07760000 -5.25168000
N 15.75000000 18.10200000 -3.44000000
C 13.78100000 17.00500000 -2.24500000
C 17.68200000 22.11700000 1.57800000
H 16.69673000 22.44211000 1.92456000
O 7.17700000 20.19700000 5.58300000
C 14.51800000 17.45500000 -1.00700000
H 13.89949000 17.30418000 -0.11565000
H 14.78644000 18.51336000 -1.04985000
C 15.75900000 25.33600000 1.49300000
H 16.74720000 24.65308000 -0.24893000
H 15.37198000 25.75608000 -0.53662000
C 16.25800000 25.57200000 0.08400000
O 14.73100000 24.67500000 1.64500000
H 15.26715000 22.02277000 -0.05691000
H 16.21315000 21.76229000 -1.51342000
H 15.45485000 23.34035000 -1.22162000
H 14.10181000 20.73974000 -1.93728000
C 15.32300000 22.26400000 -1.12200000
H 15.39185000 19.03630000 -3.19047000
H 12.87675000 17.63074000 -2.26093000
C 13.61800000 17.72600000 -4.43600000
C 15.34500000 22.25500000 -3.87000000
O 13.16900000 18.86100000 -4.26300000
O 15.77900000 21.11100000 -4.07200000
H 15.91607000 23.16043000 -4.12967000
H 6.56388000 20.50652000 2.72431000
H 7.61153000 18.27674000 1.64890000
H 5.49265000 19.24466000 2.13445000
H 13.32173000 20.79350000 -4.24917000
C 14.04100000 21.83300000 -1.83700000
C 13.97900000 22.44900000 -3.23300000
H 12.45318000 20.17275000 -0.26925000
N 12.98300000 21.75500000 -4.06600000
H 13.16011000 21.32861000 0.87409000
H 13.75778000 23.52093000 -3.19987000
C 6.27400000 19.95400000 1.83100000
H 4.63918000 21.09784000 0.91693000
C 7.38700000 19.24300000 1.19000000
H 8.29629000 19.85431000 1.18867000
H 7.68186000 19.01530000 -0.88667000
H 4.97944000 19.51978000 -0.80766000
N 6.92200000 19.07400000 -0.21400000
C 12.43800000 21.21700000 0.06000000
C 12.75400000 22.15100000 -1.08800000
H 12.79959000 23.17804000 -0.70277000
H 11.44104000 21.41701000 0.45787000
H 11.89098000 22.12960000 -1.74966000
H 12.11886000 21.56740000 -3.55541000
O 9.97300000 20.91100000 -2.92900000
C 5.89600000 20.06600000 -0.55600000
C 5.69400000 20.87400000 0.72900000
H 8.22841000 20.94928000 -1.26775000
H 6.24315000 21.81796000 0.69324000
C 6.24400000 20.96900000 -1.72700000
C 9.25500000 21.63600000 -3.58100000
H 9.50578000 21.96632000 -4.60314000
O 5.34300000 21.29400000 -2.50900000
H 9.93067000 22.78217000 -1.19057000
H 8.41586000 23.17938000 -0.37660000
N 7.52000000 21.35500000 -1.86800000
C 9.10100000 23.48500000 -1.16300000
C 7.99000000 22.20700000 -2.98300000
C 8.37500000 23.61600000 -2.48400000
H 9.51065000 24.45638000 -0.86315000
H 9.04453000 24.09720000 -3.20937000
H 7.23472000 22.24336000 -3.77499000
H 6.40987000 24.10702000 -1.63511000
C 7.12200000 24.51300000 -2.36100000
H 6.61545000 24.60259000 -3.32732000
H 7.40536000 25.51792000 -2.03161000
N 5.92500000 28.68800000 1.71900000
H 6.52047000 28.84339000 2.51983000
H 5.57181000 27.72716000 1.73355000
N 6.47600000 28.02800000 -0.41100000
C 6.52300000 28.93800000 0.56100000
H 6.69710000 30.86847000 0.86982000
H 6.94144000 28.37291000 -1.24369000
N 7.14300000 30.10200000 0.37800000
H 7.09599000 30.61252000 -1.64799000
H 8.50874000 29.66429000 -1.14277000
C 7.82800000 30.47100000 -0.84400000
H 9.29190000 31.58974000 0.21764000
H 7.95265000 32.54602000 -0.38810000
C 8.62300000 31.71600000 -0.64400000
C 9.43500000 32.06100000 -1.86200000
H 8.76873000 32.26568000 -2.71125000
H 10.03291000 31.18771000 -2.15767000
C 10.38500000 33.25100000 -1.64200000
H 10.97822000 33.10483000 -0.73183000
H 9.18102000 34.58297000 -0.62950000
H 10.31055000 35.31230000 -1.56601000
C 11.34800000 33.30500000 -2.78000000
N 9.66100000 34.52800000 -1.52500000
H 12.37248000 32.93885000 -2.60840000
O 10.96400000 33.68200000 -3.90600000
