295

N 12.39000000 30.00500000 13.53700000
H 11.70656000 30.25952000 12.82936000
H 13.21513000 29.65186000 13.04483000
H 12.90516000 28.82910000 16.37254000
O 14.06700000 28.22100000 14.82100000
H 11.06604000 29.37209000 15.02129000
C 13.03600000 28.65500000 15.29200000
C 11.89300000 28.98300000 14.41900000
H 11.45968000 28.38776000 11.65496000
H 9.96376000 28.65082000 12.57017000
H 9.71443000 27.32711000 14.84167000
H 11.16746000 26.58311000 15.52973000
C 10.80500000 27.96300000 12.42300000
C 10.65600000 26.82500000 14.59200000
C 11.52800000 27.68300000 13.69000000
H 10.38227000 27.04277000 12.00809000
H 12.41896000 27.09382000 13.43501000
H 10.40673000 25.87492000 14.10593000
H 15.06756000 14.41140000 8.97626000
H 16.44153000 14.72490000 6.96948000
N 15.54200000 14.23900000 6.94100000
H 15.73584000 13.26074000 7.14428000
H 7.35044000 27.16413000 12.74983000
H 5.80338000 28.31051000 11.25278000
H 4.29057000 27.86954000 12.04428000
C 4.89800000 27.70300000 11.14800000
H 4.34512000 28.10460000 10.29136000
H 5.42014000 25.78418000 13.06944000
N 3.16700000 25.25800000 11.84900000
H 2.56838000 26.06250000 12.01620000
H 7.87341000 26.26213000 11.33224000
C 7.36900000 26.17000000 12.29100000
C 5.95900000 25.62800000 12.12700000
H 7.96072000 25.51858000 12.94168000
H 6.08982000 24.55094000 12.01513000
C 3.97800000 25.46400000 10.65500000
C 5.23400000 26.25900000 10.95300000
H 3.36206000 25.95555000 9.89149000
H 2.56107000 24.44765000 11.72133000
H 11.17096000 23.47719000 12.24139000
H 12.85204000 23.45051000 11.73778000
C 11.93600000 22.85000000 11.77300000
H 12.13434000 21.99471000 12.42620000
H 11.27873000 19.84015000 11.59542000
C 12.64700000 18.56500000 9.67200000
C 13.48400000 18.31900000 8.45900000
H 12.75992000 16.33645000 8.42108000
N 13.58300000 16.89600000 8.23900000
O 12.88000000 17.97600000 10.72100000
C 14.76200000 16.31400000 8.11400000
H 14.45972000 18.79165000 8.59031000
O 15.80300000 16.95200000 7.88800000
C 14.71400000 14.79900000 8.01400000
H 13.68594000 14.45039000 7.87282000
N 11.85000000 19.61100000 9.58400000
H 12.43508000 22.00240000 9.89278000
H 9.57035000 21.67537000 12.31472000
H 9.18253000 18.64312000 11.29895000
C 10.85800000 19.97400000 10.59400000
C 4.42000000 24.14000000 10.11400000
H 5.89481000 26.20241000 10.07577000
N 4.56700000 24.04200000 8.79500000
H 4.61762000 24.87462000 8.22105000
O 4.66700000 23.24800000 10.88700000
H 4.74083000 21.94691000 8.84431000
H 4.16027000 22.65212000 7.33446000
H 9.04342000 22.92201000 11.16858000
H 8.37439000 21.30444000 11.08179000
C 9.29900000 21.86200000 11.27000000
C 10.36500000 21.45300000 10.31600000
C 11.55600000 22.42100000 10.39400000
H 11.32146000 23.32151000 9.82433000
C 4.88600000 22.77700000 8.14500000
O 6.72300000 23.68900000 6.90000000
H 10.01986000 21.53689000 9.30014000
H 11.64913000 19.94589000 8.64711000
C 9.70700000 18.98800000 10.39300000
O 9.34100000 18.67000000 9.25100000
H 13.00975000 18.73542000 7.56494000
H 8.91700000 21.00999000 8.03724000
C 8.31300000 21.47100000 7.27600000
H 6.56970000 20.88320000 8.30880000
N 7.01500000 21.68800000 7.88400000
C 6.26500000 22.72000000 7.52100000
H 8.77231000 22.37308000 6.88305000
C 8.22100000 20.37900000 6.23200000
H 9.14855000 19.82828000 6.00542000
O 7.17700000 20.19700000 5.58300000
O 5.34300000 21.29400000 -2.50900000
H 6.56296000 20.50580000 2.72500000
H 6.24797000 21.81532000 0.68898000
H 4.64004000 21.10126000 0.91730000
H 4.97586000 19.52450000 -0.80464000
H 7.70562000 19.06154000 -0.86320000
C 6.27400000 19.95400000 1.83100000
C 5.69400000 20.87400000 0.72900000
C 6.24400000 20.96900000 -1.72700000
C 5.89600000 20.06600000 -0.55600000
N 6.92200000 19.07400000 -0.21400000
H 5.49257000 19.24438000 2.13375000
C 7.38700000 19.24300000 1.19000000
H 7.61163000 18.27667000 1.64882000
H 7.26433000 21.38006000 -1.78173000
H 8.29629000 19.85443000 1.19001000
O 11.83200000 28.01500000 3.17100000
H 12.71278000 15.32114000 -3.07042000
H 14.12700000 14.88147000 -2.09735000
H 12.65008000 15.43871000 -1.31271000
H 12.87668000 17.63061000 -2.26085000
O 13.16900000 18.86100000 -4.26300000
C 13.61800000 17.72600000 -4.43600000
C 13.78100000 17.00500000 -2.24500000
C 14.62800000 17.16200000 -3.51400000
H 14.99176000 16.20931000 -3.91193000
C 13.29700000 15.59200000 -2.18400000
H 13.25959000 17.07847000 -5.25252000
C 14.51800000 17.45500000 -1.00700000
H 13.90135000 17.30119000 -0.11488000
H 13.63897000 28.68041000 1.39415000
C 14.04300000 28.33100000 2.34900000
O 15.84300000 30.67800000 5.23700000
H 16.30923000 29.24191000 7.35843000
H 13.24329000 28.85951000 4.37960000
C 12.95800000 28.45600000 3.39400000
H 19.14539000 31.09668000 6.03904000
C 16.94500000 30.29200000 4.88600000
H 17.38552000 30.56751000 3.91311000
H 19.31953000 29.96598000 7.20107000
N 18.62600000 30.44400000 6.62700000
H 12.03400000 22.02653000 -3.83206000
H 13.12520000 21.93003000 -5.05687000
H 11.43781000 21.41294000 0.45223000
H 12.46125000 20.17192000 -0.26618000
H 14.10144000 20.73989000 -1.93911000
C 13.97900000 22.44900000 -3.23300000
H 12.79038000 23.18080000 -0.71009000
C 12.75400000 22.15100000 -1.08800000
C 12.43800000 21.21700000 0.06000000
C 15.34500000 22.25500000 -3.87000000
O 15.77900000 21.11100000 -4.07200000
N 12.98300000 21.75500000 -4.06600000
H 11.88647000 22.11033000 -1.75477000
H 13.76706000 23.52351000 -3.20735000
H 15.92141000 23.15959000 -4.12047000
H 15.87306000 29.08296000 1.92955000
N 15.21300000 29.11100000 2.70200000
H 14.29801000 27.27916000 2.26386000
H 15.66540000 28.61146000 3.47731000
C 14.04100000 21.83300000 -1.83700000
O 16.23600000 27.45800000 4.90500000
H 18.51287000 28.89415000 5.22446000
C 17.85300000 29.51600000 5.83700000
C 17.04700000 28.64200000 6.81100000
H 17.73261000 28.18998000 7.54014000
O 15.76200000 26.69600000 6.88200000
H 15.81914000 26.86956000 7.84664000
H 16.80518000 27.62648000 0.47715000
H 17.88815000 26.27328000 -1.89303000
H 16.51064000 27.14862000 -1.91258000
N 17.40700000 27.05400000 -1.43700000
H 14.78388000 18.51408000 -1.04925000
H 15.37606000 19.03640000 -3.20254000
N 15.75000000 18.10200000 -3.44000000
H 15.42036000 16.84920000 -0.90030000
H 16.11953000 18.27671000 -4.37679000
H 15.37194000 25.75602000 -0.53657000
H 13.15561000 21.33491000 0.87724000
O 14.73100000 24.67500000 1.64500000
C 16.25800000 25.57200000 0.08400000
C 17.22700000 26.75100000 -0.02600000
H 19.13336000 27.31843000 0.99989000
C 15.75900000 25.33600000 1.49300000
H 15.94222000 25.39352000 3.25397000
O 16.39900000 25.78000000 2.45300000
C 16.31600000 27.51300000 6.14600000
H 19.17928000 27.17230000 3.96276000
C 18.55500000 26.44600000 0.65300000
C 15.32300000 22.26400000 -1.12200000
H 16.74723000 24.65309000 -0.24894000
H 15.26724000 22.02218000 -0.05702000
H 16.21329000 21.76275000 -1.51369000
H 15.45449000 23.34044000 -1.22107000
H 18.22021000 26.11750000 3.17371000
N 19.10600000 26.19900000 3.68800000
H 18.06467000 25.65108000 5.43542000
H 19.83348000 25.49675000 5.51908000
H 16.69672000 22.44208000 1.92456000
C 18.95700000 25.37200000 4.87600000
O 19.00300000 25.30900000 0.69200000
C 19.21200000 18.80700000 -1.37100000
O 18.38300000 19.52300000 -0.84600000
H 19.05090000 16.57389000 -0.08745000
H 19.15542000 18.52371000 -2.43568000
H 20.17481000 16.21181000 -1.36755000
H 17.98151000 22.74963000 0.73719000
H 21.26177000 18.36934000 -1.18226000
C 17.68200000 22.11700000 1.57800000
C 18.72100000 22.21100000 2.73800000
H 19.18936000 24.29061000 2.55835000
N 18.81900000 23.60000000 3.21700000
C 18.84500000 23.90300000 4.52000000
H 17.61316000 21.08970000 1.21353000
O 20.74900000 22.24300000 1.40300000
H 18.33636000 21.58614000 3.54432000
O 18.66000000 23.05400000 5.41700000
C 20.08400000 16.74500000 -0.41300000
O 22.23300000 15.97000000 0.26500000
N 20.52400000 18.86800000 0.71900000
C 20.35500000 18.22700000 -0.58400000
C 21.02300000 16.08800000 0.58600000
O 22.64200000 19.50200000 0.36100000
O 20.53100000 15.68200000 1.67200000
H 19.57423000 15.51947000 1.64736000
H 19.68670000 19.20230000 1.18974000
C 20.08900000 21.66100000 2.29200000
C 21.69300000 19.37400000 1.10700000
H 22.54382000 20.70110000 2.49003000
N 20.53600000 20.55900000 2.91800000
C 21.77900000 19.91200000 2.49600000
H 23.13084000 18.37732000 3.17501000
O 26.94700000 26.29100000 7.77500000
H 27.47471000 24.42575000 5.45924000
C 26.02900000 26.02500000 6.99600000
N 26.99200000 23.87700000 6.16900000
H 25.32551000 26.78490000 6.61990000
H 26.76144000 22.98047000 5.74317000
H 20.23223000 20.44682000 3.88222000
H 21.42240000 18.02288000 3.42136000
C 22.16900000 18.82700000 3.44700000
O 22.71400000 20.48200000 5.02900000
C 22.27200000 19.33700000 4.84400000
O 21.83600000 18.64700000 5.77800000
H 21.48569000 17.76152000 5.55499000
H 24.09917000 22.38189000 6.55479000
H 25.50878000 21.74198000 7.39826000
H 24.21136000 24.44242000 8.07276000
C 25.08700000 23.84900000 7.77600000
H 25.75737000 23.85614000 8.64630000
C 25.75700000 24.56600000 6.59300000
H 25.07371000 24.59931000 5.73645000
C 24.64600000 22.40900000 7.50500000
H 22.88721000 20.56155000 7.22686000
N 22.95200000 20.73000000 8.23000000
C 23.72800000 21.89600000 8.63700000
H 21.86953000 18.83520000 7.56489000
H 24.34960000 21.66333000 9.50979000
C 22.36700000 19.87100000 9.06400000
N 21.77600000 18.78900000 8.58900000
N 22.37600000 20.07400000 10.37000000
H 21.79766000 19.38026000 10.83074000
H 23.02157000 22.68045000 8.93174000
H 22.11092000 21.00892000 10.64218000
H 20.48481000 23.92178000 12.21862000
H 20.51448000 24.37869000 13.91393000
H 19.58759000 22.11559000 13.49892000
H 18.55195000 22.70568000 11.31634000
C 19.84300000 24.14400000 13.08000000
H 17.27392000 23.57403000 12.15625000
H 18.95419000 23.20445000 15.58784000
C 18.00900000 22.76900000 12.26300000
C 18.96900000 23.01700000 13.38800000
C 17.54900000 24.62600000 14.80100000
C 18.23600000 23.24300000 14.76200000
H 19.29627000 25.05971000 12.82798000
H 17.46389000 21.82894000 12.38225000
N 17.22000000 22.21900000 14.94800000
H 18.18661000 25.50062000 15.00721000
H 16.36355000 22.50839000 14.46564000
H 17.50584000 21.32902000 14.54713000
O 16.32800000 24.73500000 14.56900000
O 10.96400000 33.68200000 -3.90600000
H 10.31101000 35.31205000 -1.55428000
C 11.34800000 33.30500000 -2.78000000
N 9.66100000 34.52800000 -1.52500000
H 12.37229000 32.93827000 -2.60866000
C 10.38500000 33.25100000 -1.64200000
H 10.97786000 33.10473000 -0.73163000
H 9.16760000 34.57754000 -0.63671000
H 10.03291000 31.18771000 -2.15768000
C 9.43500000 32.06100000 -1.86200000
H 8.76872000 32.26569000 -2.71125000
H 9.29188000 31.58979000 0.21765000
H 7.95250000 32.54589000 -0.38810000
C 8.62300000 31.71600000 -0.64400000
H 7.09593000 30.61261000 -1.64792000
H 8.50870000 29.66431000 -1.14286000
C 7.82800000 30.47100000 -0.84400000
N 7.14300000 30.10200000 0.37800000
H 6.94209000 28.37148000 -1.24390000
H 6.70204000 30.86739000 0.87554000
C 6.52300000 28.93800000 0.56100000
N 6.47600000 28.02800000 -0.41100000
N 5.92500000 28.68800000 1.71900000
H 6.52284000 28.84102000 2.51923000
H 5.57309000 27.72678000 1.73375000
